
---------- Begin Simulation Statistics ----------
final_tick                               160654868000                       # Number of ticks from beginning of simulation (restored from checkpoints and never reset)
host_inst_rate                                 585517                       # Simulator instruction rate (inst/s)
host_mem_usage                                 700128                       # Number of bytes of host memory used
host_op_rate                                   586667                       # Simulator op (including micro ops) rate (op/s)
host_seconds                                   170.79                       # Real time elapsed on the host
host_tick_rate                              940661400                       # Simulator tick rate (ticks/s)
sim_freq                                 1000000000000                       # Frequency of simulated ticks
sim_insts                                   100000001                       # Number of instructions simulated
sim_ops                                     100196366                       # Number of ops (including micro ops) simulated
sim_seconds                                  0.160655                       # Number of seconds simulated
sim_ticks                                160654868000                       # Number of ticks simulated
system.cpu.branchPred.BTBCorrect                    0                       # Number of correct BTB predictions (this stat may not work properly.
system.cpu.branchPred.BTBHitPct             99.616579                       # BTB Hit Percentage
system.cpu.branchPred.BTBHits                 2095626                       # Number of BTB hits
system.cpu.branchPred.BTBLookups              2103692                       # Number of BTB lookups
system.cpu.branchPred.RASInCorrect                  5                       # Number of incorrect RAS predictions.
system.cpu.branchPred.condIncorrect             81389                       # Number of conditional branches incorrect
system.cpu.branchPred.condPredicted           3728115                       # Number of conditional branches predicted
system.cpu.branchPred.indirectHits                293                       # Number of indirect target hits.
system.cpu.branchPred.indirectLookups             998                       # Number of indirect predictor lookups.
system.cpu.branchPred.indirectMisses              705                       # Number of indirect misses.
system.cpu.branchPred.lookups                 4478235                       # Number of BP lookups
system.cpu.branchPred.usedRAS                   65356                       # Number of times the RAS was used to get a target.
system.cpu.branchPredindirectMispredicted          168                       # Number of mispredicted indirect branches.
system.cpu.committedInsts                   100000001                       # Number of instructions committed
system.cpu.committedOps                     100196366                       # Number of ops (including micro ops) committed
system.cpu.cpi                               1.606549                       # CPI: cycles per instruction
system.cpu.discardedOps                        190815                       # Number of ops (including micro ops) which were discarded before commit
system.cpu.dtb.accesses                             0                       # DTB accesses
system.cpu.dtb.align_faults                         0                       # Number of TLB faults due to alignment restrictions
system.cpu.dtb.domain_faults                        0                       # Number of TLB faults due to domain restrictions
system.cpu.dtb.flush_entries                        0                       # Number of entries that have been flushed from TLB
system.cpu.dtb.flush_tlb                            0                       # Number of times complete TLB was flushed
system.cpu.dtb.flush_tlb_asid                       0                       # Number of times TLB was flushed by ASID
system.cpu.dtb.flush_tlb_mva                        0                       # Number of times TLB was flushed by MVA
system.cpu.dtb.flush_tlb_mva_asid                   0                       # Number of times TLB was flushed by MVA & ASID
system.cpu.dtb.hits                                 0                       # DTB hits
system.cpu.dtb.inst_accesses                        0                       # ITB inst accesses
system.cpu.dtb.inst_hits                            0                       # ITB inst hits
system.cpu.dtb.inst_misses                          0                       # ITB inst misses
system.cpu.dtb.misses                               0                       # DTB misses
system.cpu.dtb.perms_faults                         0                       # Number of TLB faults due to permissions restrictions
system.cpu.dtb.prefetch_faults                      0                       # Number of TLB faults due to prefetch
system.cpu.dtb.read_accesses                        0                       # DTB read accesses
system.cpu.dtb.read_hits                            0                       # DTB read hits
system.cpu.dtb.read_misses                          0                       # DTB read misses
system.cpu.dtb.stage2_mmu.stage2_tlb.accesses            0                       # DTB accesses
system.cpu.dtb.stage2_mmu.stage2_tlb.align_faults            0                       # Number of TLB faults due to alignment restrictions
system.cpu.dtb.stage2_mmu.stage2_tlb.domain_faults            0                       # Number of TLB faults due to domain restrictions
system.cpu.dtb.stage2_mmu.stage2_tlb.flush_entries            0                       # Number of entries that have been flushed from TLB
system.cpu.dtb.stage2_mmu.stage2_tlb.flush_tlb            0                       # Number of times complete TLB was flushed
system.cpu.dtb.stage2_mmu.stage2_tlb.flush_tlb_asid            0                       # Number of times TLB was flushed by ASID
system.cpu.dtb.stage2_mmu.stage2_tlb.flush_tlb_mva            0                       # Number of times TLB was flushed by MVA
system.cpu.dtb.stage2_mmu.stage2_tlb.flush_tlb_mva_asid            0                       # Number of times TLB was flushed by MVA & ASID
system.cpu.dtb.stage2_mmu.stage2_tlb.hits            0                       # DTB hits
system.cpu.dtb.stage2_mmu.stage2_tlb.inst_accesses            0                       # ITB inst accesses
system.cpu.dtb.stage2_mmu.stage2_tlb.inst_hits            0                       # ITB inst hits
system.cpu.dtb.stage2_mmu.stage2_tlb.inst_misses            0                       # ITB inst misses
system.cpu.dtb.stage2_mmu.stage2_tlb.misses            0                       # DTB misses
system.cpu.dtb.stage2_mmu.stage2_tlb.perms_faults            0                       # Number of TLB faults due to permissions restrictions
system.cpu.dtb.stage2_mmu.stage2_tlb.prefetch_faults            0                       # Number of TLB faults due to prefetch
system.cpu.dtb.stage2_mmu.stage2_tlb.read_accesses            0                       # DTB read accesses
system.cpu.dtb.stage2_mmu.stage2_tlb.read_hits            0                       # DTB read hits
system.cpu.dtb.stage2_mmu.stage2_tlb.read_misses            0                       # DTB read misses
system.cpu.dtb.stage2_mmu.stage2_tlb.walker.walkRequestOrigin_Requested::Data            0                       # Table walker requests started/completed, data/inst
system.cpu.dtb.stage2_mmu.stage2_tlb.walker.walkRequestOrigin_Requested::Inst            0                       # Table walker requests started/completed, data/inst
system.cpu.dtb.stage2_mmu.stage2_tlb.walker.walkRequestOrigin_Requested::total            0                       # Table walker requests started/completed, data/inst
system.cpu.dtb.stage2_mmu.stage2_tlb.walker.walkRequestOrigin_Completed::Data            0                       # Table walker requests started/completed, data/inst
system.cpu.dtb.stage2_mmu.stage2_tlb.walker.walkRequestOrigin_Completed::Inst            0                       # Table walker requests started/completed, data/inst
system.cpu.dtb.stage2_mmu.stage2_tlb.walker.walkRequestOrigin_Completed::total            0                       # Table walker requests started/completed, data/inst
system.cpu.dtb.stage2_mmu.stage2_tlb.walker.walkRequestOrigin::total            0                       # Table walker requests started/completed, data/inst
system.cpu.dtb.stage2_mmu.stage2_tlb.walker.walks            0                       # Table walker walks requested
system.cpu.dtb.stage2_mmu.stage2_tlb.write_accesses            0                       # DTB write accesses
system.cpu.dtb.stage2_mmu.stage2_tlb.write_hits            0                       # DTB write hits
system.cpu.dtb.stage2_mmu.stage2_tlb.write_misses            0                       # DTB write misses
system.cpu.dtb.walker.walkRequestOrigin_Requested::Data            0                       # Table walker requests started/completed, data/inst
system.cpu.dtb.walker.walkRequestOrigin_Requested::Inst            0                       # Table walker requests started/completed, data/inst
system.cpu.dtb.walker.walkRequestOrigin_Requested::total            0                       # Table walker requests started/completed, data/inst
system.cpu.dtb.walker.walkRequestOrigin_Completed::Data            0                       # Table walker requests started/completed, data/inst
system.cpu.dtb.walker.walkRequestOrigin_Completed::Inst            0                       # Table walker requests started/completed, data/inst
system.cpu.dtb.walker.walkRequestOrigin_Completed::total            0                       # Table walker requests started/completed, data/inst
system.cpu.dtb.walker.walkRequestOrigin::total            0                       # Table walker requests started/completed, data/inst
system.cpu.dtb.walker.walks                         0                       # Table walker walks requested
system.cpu.dtb.write_accesses                       0                       # DTB write accesses
system.cpu.dtb.write_hits                           0                       # DTB write hits
system.cpu.dtb.write_misses                         0                       # DTB write misses
system.cpu.fetch2.amo_instructions                  0                       # Number of memory atomic instructions successfully decoded
system.cpu.fetch2.fp_instructions                   0                       # Number of floating point instructions successfully decoded
system.cpu.fetch2.int_instructions           42610569                       # Number of integer instructions successfully decoded
system.cpu.fetch2.load_instructions          43403329                       # Number of memory load instructions successfully decoded
system.cpu.fetch2.store_instructions         11001624                       # Number of memory store instructions successfully decoded
system.cpu.fetch2.vec_instructions                  0                       # Number of SIMD instructions successfully decoded
system.cpu.idleCycles                        28185923                       # Total number of cycles that the object has spent stopped
system.cpu.ipc                               0.622452                       # IPC: instructions per cycle
system.cpu.itb.accesses                             0                       # DTB accesses
system.cpu.itb.align_faults                         0                       # Number of TLB faults due to alignment restrictions
system.cpu.itb.domain_faults                        0                       # Number of TLB faults due to domain restrictions
system.cpu.itb.flush_entries                        0                       # Number of entries that have been flushed from TLB
system.cpu.itb.flush_tlb                            0                       # Number of times complete TLB was flushed
system.cpu.itb.flush_tlb_asid                       0                       # Number of times TLB was flushed by ASID
system.cpu.itb.flush_tlb_mva                        0                       # Number of times TLB was flushed by MVA
system.cpu.itb.flush_tlb_mva_asid                   0                       # Number of times TLB was flushed by MVA & ASID
system.cpu.itb.hits                                 0                       # DTB hits
system.cpu.itb.inst_accesses                        0                       # ITB inst accesses
system.cpu.itb.inst_hits                            0                       # ITB inst hits
system.cpu.itb.inst_misses                          0                       # ITB inst misses
system.cpu.itb.misses                               0                       # DTB misses
system.cpu.itb.perms_faults                         0                       # Number of TLB faults due to permissions restrictions
system.cpu.itb.prefetch_faults                      0                       # Number of TLB faults due to prefetch
system.cpu.itb.read_accesses                        0                       # DTB read accesses
system.cpu.itb.read_hits                            0                       # DTB read hits
system.cpu.itb.read_misses                          0                       # DTB read misses
system.cpu.itb.stage2_mmu.stage2_tlb.accesses            0                       # DTB accesses
system.cpu.itb.stage2_mmu.stage2_tlb.align_faults            0                       # Number of TLB faults due to alignment restrictions
system.cpu.itb.stage2_mmu.stage2_tlb.domain_faults            0                       # Number of TLB faults due to domain restrictions
system.cpu.itb.stage2_mmu.stage2_tlb.flush_entries            0                       # Number of entries that have been flushed from TLB
system.cpu.itb.stage2_mmu.stage2_tlb.flush_tlb            0                       # Number of times complete TLB was flushed
system.cpu.itb.stage2_mmu.stage2_tlb.flush_tlb_asid            0                       # Number of times TLB was flushed by ASID
system.cpu.itb.stage2_mmu.stage2_tlb.flush_tlb_mva            0                       # Number of times TLB was flushed by MVA
system.cpu.itb.stage2_mmu.stage2_tlb.flush_tlb_mva_asid            0                       # Number of times TLB was flushed by MVA & ASID
system.cpu.itb.stage2_mmu.stage2_tlb.hits            0                       # DTB hits
system.cpu.itb.stage2_mmu.stage2_tlb.inst_accesses            0                       # ITB inst accesses
system.cpu.itb.stage2_mmu.stage2_tlb.inst_hits            0                       # ITB inst hits
system.cpu.itb.stage2_mmu.stage2_tlb.inst_misses            0                       # ITB inst misses
system.cpu.itb.stage2_mmu.stage2_tlb.misses            0                       # DTB misses
system.cpu.itb.stage2_mmu.stage2_tlb.perms_faults            0                       # Number of TLB faults due to permissions restrictions
system.cpu.itb.stage2_mmu.stage2_tlb.prefetch_faults            0                       # Number of TLB faults due to prefetch
system.cpu.itb.stage2_mmu.stage2_tlb.read_accesses            0                       # DTB read accesses
system.cpu.itb.stage2_mmu.stage2_tlb.read_hits            0                       # DTB read hits
system.cpu.itb.stage2_mmu.stage2_tlb.read_misses            0                       # DTB read misses
system.cpu.itb.stage2_mmu.stage2_tlb.walker.walkRequestOrigin_Requested::Data            0                       # Table walker requests started/completed, data/inst
system.cpu.itb.stage2_mmu.stage2_tlb.walker.walkRequestOrigin_Requested::Inst            0                       # Table walker requests started/completed, data/inst
system.cpu.itb.stage2_mmu.stage2_tlb.walker.walkRequestOrigin_Requested::total            0                       # Table walker requests started/completed, data/inst
system.cpu.itb.stage2_mmu.stage2_tlb.walker.walkRequestOrigin_Completed::Data            0                       # Table walker requests started/completed, data/inst
system.cpu.itb.stage2_mmu.stage2_tlb.walker.walkRequestOrigin_Completed::Inst            0                       # Table walker requests started/completed, data/inst
system.cpu.itb.stage2_mmu.stage2_tlb.walker.walkRequestOrigin_Completed::total            0                       # Table walker requests started/completed, data/inst
system.cpu.itb.stage2_mmu.stage2_tlb.walker.walkRequestOrigin::total            0                       # Table walker requests started/completed, data/inst
system.cpu.itb.stage2_mmu.stage2_tlb.walker.walks            0                       # Table walker walks requested
system.cpu.itb.stage2_mmu.stage2_tlb.write_accesses            0                       # DTB write accesses
system.cpu.itb.stage2_mmu.stage2_tlb.write_hits            0                       # DTB write hits
system.cpu.itb.stage2_mmu.stage2_tlb.write_misses            0                       # DTB write misses
system.cpu.itb.walker.walkRequestOrigin_Requested::Data            0                       # Table walker requests started/completed, data/inst
system.cpu.itb.walker.walkRequestOrigin_Requested::Inst            0                       # Table walker requests started/completed, data/inst
system.cpu.itb.walker.walkRequestOrigin_Requested::total            0                       # Table walker requests started/completed, data/inst
system.cpu.itb.walker.walkRequestOrigin_Completed::Data            0                       # Table walker requests started/completed, data/inst
system.cpu.itb.walker.walkRequestOrigin_Completed::Inst            0                       # Table walker requests started/completed, data/inst
system.cpu.itb.walker.walkRequestOrigin_Completed::total            0                       # Table walker requests started/completed, data/inst
system.cpu.itb.walker.walkRequestOrigin::total            0                       # Table walker requests started/completed, data/inst
system.cpu.itb.walker.walks                         0                       # Table walker walks requested
system.cpu.itb.write_accesses                       0                       # DTB write accesses
system.cpu.itb.write_hits                           0                       # DTB write hits
system.cpu.itb.write_misses                         0                       # DTB write misses
system.cpu.numCycles                        160654868                       # number of cpu cycles simulated
system.cpu.numFetchSuspends                         0                       # Number of times Execute suspended instruction fetching
system.cpu.numWorkItemsCompleted                    0                       # number of work items this cpu completed
system.cpu.numWorkItemsStarted                      0                       # number of work items this cpu started
system.cpu.op_class_0::No_OpClass                   0      0.00%      0.00% # Class of committed instruction
system.cpu.op_class_0::IntAlu                46531423     46.44%     46.44% # Class of committed instruction
system.cpu.op_class_0::IntMult                  20720      0.02%     46.46% # Class of committed instruction
system.cpu.op_class_0::IntDiv                       0      0.00%     46.46% # Class of committed instruction
system.cpu.op_class_0::FloatAdd                     0      0.00%     46.46% # Class of committed instruction
system.cpu.op_class_0::FloatCmp                     0      0.00%     46.46% # Class of committed instruction
system.cpu.op_class_0::FloatCvt                     0      0.00%     46.46% # Class of committed instruction
system.cpu.op_class_0::FloatMult                    0      0.00%     46.46% # Class of committed instruction
system.cpu.op_class_0::FloatMultAcc                 0      0.00%     46.46% # Class of committed instruction
system.cpu.op_class_0::FloatDiv                     0      0.00%     46.46% # Class of committed instruction
system.cpu.op_class_0::FloatMisc                    0      0.00%     46.46% # Class of committed instruction
system.cpu.op_class_0::FloatSqrt                    0      0.00%     46.46% # Class of committed instruction
system.cpu.op_class_0::SimdAdd                      0      0.00%     46.46% # Class of committed instruction
system.cpu.op_class_0::SimdAddAcc                   0      0.00%     46.46% # Class of committed instruction
system.cpu.op_class_0::SimdAlu                      0      0.00%     46.46% # Class of committed instruction
system.cpu.op_class_0::SimdCmp                      0      0.00%     46.46% # Class of committed instruction
system.cpu.op_class_0::SimdCvt                      0      0.00%     46.46% # Class of committed instruction
system.cpu.op_class_0::SimdMisc                     0      0.00%     46.46% # Class of committed instruction
system.cpu.op_class_0::SimdMult                     0      0.00%     46.46% # Class of committed instruction
system.cpu.op_class_0::SimdMultAcc                  0      0.00%     46.46% # Class of committed instruction
system.cpu.op_class_0::SimdShift                    0      0.00%     46.46% # Class of committed instruction
system.cpu.op_class_0::SimdShiftAcc                 0      0.00%     46.46% # Class of committed instruction
system.cpu.op_class_0::SimdDiv                      0      0.00%     46.46% # Class of committed instruction
system.cpu.op_class_0::SimdSqrt                     0      0.00%     46.46% # Class of committed instruction
system.cpu.op_class_0::SimdFloatAdd                 0      0.00%     46.46% # Class of committed instruction
system.cpu.op_class_0::SimdFloatAlu                 0      0.00%     46.46% # Class of committed instruction
system.cpu.op_class_0::SimdFloatCmp                 0      0.00%     46.46% # Class of committed instruction
system.cpu.op_class_0::SimdFloatCvt                 0      0.00%     46.46% # Class of committed instruction
system.cpu.op_class_0::SimdFloatDiv                 0      0.00%     46.46% # Class of committed instruction
system.cpu.op_class_0::SimdFloatMisc               18      0.00%     46.46% # Class of committed instruction
system.cpu.op_class_0::SimdFloatMult                0      0.00%     46.46% # Class of committed instruction
system.cpu.op_class_0::SimdFloatMultAcc             0      0.00%     46.46% # Class of committed instruction
system.cpu.op_class_0::SimdFloatSqrt                0      0.00%     46.46% # Class of committed instruction
system.cpu.op_class_0::SimdReduceAdd                0      0.00%     46.46% # Class of committed instruction
system.cpu.op_class_0::SimdReduceAlu                0      0.00%     46.46% # Class of committed instruction
system.cpu.op_class_0::SimdReduceCmp                0      0.00%     46.46% # Class of committed instruction
system.cpu.op_class_0::SimdFloatReduceAdd            0      0.00%     46.46% # Class of committed instruction
system.cpu.op_class_0::SimdFloatReduceCmp            0      0.00%     46.46% # Class of committed instruction
system.cpu.op_class_0::SimdAes                      0      0.00%     46.46% # Class of committed instruction
system.cpu.op_class_0::SimdAesMix                   0      0.00%     46.46% # Class of committed instruction
system.cpu.op_class_0::SimdSha1Hash                 0      0.00%     46.46% # Class of committed instruction
system.cpu.op_class_0::SimdSha1Hash2                0      0.00%     46.46% # Class of committed instruction
system.cpu.op_class_0::SimdSha256Hash               0      0.00%     46.46% # Class of committed instruction
system.cpu.op_class_0::SimdSha256Hash2              0      0.00%     46.46% # Class of committed instruction
system.cpu.op_class_0::SimdShaSigma2                0      0.00%     46.46% # Class of committed instruction
system.cpu.op_class_0::SimdShaSigma3                0      0.00%     46.46% # Class of committed instruction
system.cpu.op_class_0::SimdPredAlu                  0      0.00%     46.46% # Class of committed instruction
system.cpu.op_class_0::MemRead               42693587     42.61%     89.07% # Class of committed instruction
system.cpu.op_class_0::MemWrite              10950618     10.93%    100.00% # Class of committed instruction
system.cpu.op_class_0::FloatMemRead                 0      0.00%    100.00% # Class of committed instruction
system.cpu.op_class_0::FloatMemWrite                0      0.00%    100.00% # Class of committed instruction
system.cpu.op_class_0::IprAccess                    0      0.00%    100.00% # Class of committed instruction
system.cpu.op_class_0::InstPrefetch                 0      0.00%    100.00% # Class of committed instruction
system.cpu.op_class_0::total                100196366                       # Class of committed instruction
system.cpu.tickCycles                       132468945                       # Number of cycles that the object actually ticked
system.cpu.workload.numSyscalls                    84                       # Number of system calls
system.membus.snoop_filter.hit_multi_requests            0                       # Number of requests hitting in the snoop filter with multiple (>1) holders of the requested data.
system.membus.snoop_filter.hit_multi_snoops            0                       # Number of snoops hitting in the snoop filter with multiple (>1) holders of the requested data.
system.membus.snoop_filter.hit_single_requests       106631                       # Number of requests hitting in the snoop filter with a single holder of the requested data.
system.membus.snoop_filter.hit_single_snoops            0                       # Number of snoops hitting in the snoop filter with a single holder of the requested data.
system.membus.snoop_filter.tot_requests        229827                       # Total number of requests made to the snoop filter.
system.membus.snoop_filter.tot_snoops               0                       # Total number of snoops made to the snoop filter.
system.tol2bus.snoop_filter.hit_multi_requests          168                       # Number of requests hitting in the snoop filter with multiple (>1) holders of the requested data.
system.tol2bus.snoop_filter.hit_multi_snoops            0                       # Number of snoops hitting in the snoop filter with multiple (>1) holders of the requested data.
system.tol2bus.snoop_filter.hit_single_requests       708567                       # Number of requests hitting in the snoop filter with a single holder of the requested data.
system.tol2bus.snoop_filter.hit_single_snoops          314                       # Number of snoops hitting in the snoop filter with a single holder of the requested data.
system.tol2bus.snoop_filter.tot_requests      1417884                       # Total number of requests made to the snoop filter.
system.tol2bus.snoop_filter.tot_snoops            314                       # Total number of snoops made to the snoop filter.
system.membus.pwrStateResidencyTicks::UNDEFINED 160654868000                       # Cumulative time (in ticks) in various power states
system.membus.trans_dist::ReadResp              38019                       # Transaction distribution
system.membus.trans_dist::WritebackDirty        72922                       # Transaction distribution
system.membus.trans_dist::CleanEvict            33698                       # Transaction distribution
system.membus.trans_dist::ReadExReq             85188                       # Transaction distribution
system.membus.trans_dist::ReadExResp            85188                       # Transaction distribution
system.membus.trans_dist::ReadSharedReq         38019                       # Transaction distribution
system.membus.pkt_count_system.l2.mem_side::system.mem_ctrls.port       353034                       # Packet count per connected master and slave (bytes)
system.membus.pkt_count::total                 353034                       # Packet count per connected master and slave (bytes)
system.membus.pkt_size_system.l2.mem_side::system.mem_ctrls.port     25104512                       # Cumulative packet size per connected master and slave (bytes)
system.membus.pkt_size::total                25104512                       # Cumulative packet size per connected master and slave (bytes)
system.membus.snoops                                0                       # Total snoops (count)
system.membus.snoopTraffic                          0                       # Total snoop traffic (bytes)
system.membus.snoop_fanout::samples            123207                       # Request fanout histogram
system.membus.snoop_fanout::mean                    0                       # Request fanout histogram
system.membus.snoop_fanout::stdev                   0                       # Request fanout histogram
system.membus.snoop_fanout::underflows              0      0.00%      0.00% # Request fanout histogram
system.membus.snoop_fanout::0                  123207    100.00%    100.00% # Request fanout histogram
system.membus.snoop_fanout::1                       0      0.00%    100.00% # Request fanout histogram
system.membus.snoop_fanout::overflows               0      0.00%    100.00% # Request fanout histogram
system.membus.snoop_fanout::min_value               0                       # Request fanout histogram
system.membus.snoop_fanout::max_value               0                       # Request fanout histogram
system.membus.snoop_fanout::total              123207                       # Request fanout histogram
system.membus.respLayer1.occupancy         1151905000                       # Layer occupancy (ticks)
system.membus.respLayer1.utilization              0.7                       # Layer utilization (%)
system.membus.reqLayer0.occupancy           813203000                       # Layer occupancy (ticks)
system.membus.reqLayer0.utilization               0.5                       # Layer utilization (%)
system.tol2bus.pwrStateResidencyTicks::UNDEFINED 160654868000                       # Cumulative time (in ticks) in various power states
system.tol2bus.trans_dist::ReadResp            420055                       # Transaction distribution
system.tol2bus.trans_dist::WritebackDirty       731027                       # Transaction distribution
system.tol2bus.trans_dist::WritebackClean          304                       # Transaction distribution
system.tol2bus.trans_dist::CleanEvict           84169                       # Transaction distribution
system.tol2bus.trans_dist::ReadExReq           289262                       # Transaction distribution
system.tol2bus.trans_dist::ReadExResp          289262                       # Transaction distribution
system.tol2bus.trans_dist::ReadCleanReq           542                       # Transaction distribution
system.tol2bus.trans_dist::ReadSharedReq       419513                       # Transaction distribution
system.tol2bus.pkt_count_system.cpu.icache.mem_side::system.l2.cpu_side         1388                       # Packet count per connected master and slave (bytes)
system.tol2bus.pkt_count_system.cpu.dcache.mem_side::system.l2.cpu_side      2125813                       # Packet count per connected master and slave (bytes)
system.tol2bus.pkt_count::total               2127201                       # Packet count per connected master and slave (bytes)
system.tol2bus.pkt_size_system.cpu.icache.mem_side::system.l2.cpu_side       108288                       # Cumulative packet size per connected master and slave (bytes)
system.tol2bus.pkt_size_system.cpu.dcache.mem_side::system.l2.cpu_side    174960640                       # Cumulative packet size per connected master and slave (bytes)
system.tol2bus.pkt_size::total              175068928                       # Cumulative packet size per connected master and slave (bytes)
system.tol2bus.snoops                          106933                       # Total snoops (count)
system.tol2bus.snoopTraffic                   9334016                       # Total snoop traffic (bytes)
system.tol2bus.snoop_fanout::samples           816250                       # Request fanout histogram
system.tol2bus.snoop_fanout::mean            0.000591                       # Request fanout histogram
system.tol2bus.snoop_fanout::stdev           0.024293                       # Request fanout histogram
system.tol2bus.snoop_fanout::underflows             0      0.00%      0.00% # Request fanout histogram
system.tol2bus.snoop_fanout::0                 815768     99.94%     99.94% # Request fanout histogram
system.tol2bus.snoop_fanout::1                    482      0.06%    100.00% # Request fanout histogram
system.tol2bus.snoop_fanout::2                      0      0.00%    100.00% # Request fanout histogram
system.tol2bus.snoop_fanout::overflows              0      0.00%    100.00% # Request fanout histogram
system.tol2bus.snoop_fanout::min_value              0                       # Request fanout histogram
system.tol2bus.snoop_fanout::max_value              1                       # Request fanout histogram
system.tol2bus.snoop_fanout::total             816250                       # Request fanout histogram
system.tol2bus.reqLayer0.occupancy         4051520000                       # Layer occupancy (ticks)
system.tol2bus.reqLayer0.utilization              2.5                       # Layer utilization (%)
system.tol2bus.respLayer1.occupancy        3543879995                       # Layer occupancy (ticks)
system.tol2bus.respLayer1.utilization             2.2                       # Layer utilization (%)
system.tol2bus.respLayer0.occupancy           2710000                       # Layer occupancy (ticks)
system.tol2bus.respLayer0.utilization             0.0                       # Layer utilization (%)
system.voltage_domain.voltage                       1                       # Voltage in Volts
system.clk_domain.clock                          1000                       # Clock period in ticks
system.l2.pwrStateResidencyTicks::UNDEFINED 160654868000                       # Cumulative time (in ticks) in various power states
system.l2.demand_hits::.cpu.inst                  119                       # number of demand (read+write) hits
system.l2.demand_hits::.cpu.data               585986                       # number of demand (read+write) hits
system.l2.demand_hits::total                   586105                       # number of demand (read+write) hits
system.l2.overall_hits::.cpu.inst                 119                       # number of overall hits
system.l2.overall_hits::.cpu.data              585986                       # number of overall hits
system.l2.overall_hits::total                  586105                       # number of overall hits
system.l2.demand_misses::.cpu.inst                423                       # number of demand (read+write) misses
system.l2.demand_misses::.cpu.data             122789                       # number of demand (read+write) misses
system.l2.demand_misses::total                 123212                       # number of demand (read+write) misses
system.l2.overall_misses::.cpu.inst               423                       # number of overall misses
system.l2.overall_misses::.cpu.data            122789                       # number of overall misses
system.l2.overall_misses::total                123212                       # number of overall misses
system.l2.demand_miss_latency::.cpu.inst     44236000                       # number of demand (read+write) miss cycles
system.l2.demand_miss_latency::.cpu.data  13525620000                       # number of demand (read+write) miss cycles
system.l2.demand_miss_latency::total      13569856000                       # number of demand (read+write) miss cycles
system.l2.overall_miss_latency::.cpu.inst     44236000                       # number of overall miss cycles
system.l2.overall_miss_latency::.cpu.data  13525620000                       # number of overall miss cycles
system.l2.overall_miss_latency::total     13569856000                       # number of overall miss cycles
system.l2.demand_accesses::.cpu.inst              542                       # number of demand (read+write) accesses
system.l2.demand_accesses::.cpu.data           708775                       # number of demand (read+write) accesses
system.l2.demand_accesses::total               709317                       # number of demand (read+write) accesses
system.l2.overall_accesses::.cpu.inst             542                       # number of overall (read+write) accesses
system.l2.overall_accesses::.cpu.data          708775                       # number of overall (read+write) accesses
system.l2.overall_accesses::total              709317                       # number of overall (read+write) accesses
system.l2.demand_miss_rate::.cpu.inst        0.780443                       # miss rate for demand accesses
system.l2.demand_miss_rate::.cpu.data        0.173241                       # miss rate for demand accesses
system.l2.demand_miss_rate::total            0.173705                       # miss rate for demand accesses
system.l2.overall_miss_rate::.cpu.inst       0.780443                       # miss rate for overall accesses
system.l2.overall_miss_rate::.cpu.data       0.173241                       # miss rate for overall accesses
system.l2.overall_miss_rate::total           0.173705                       # miss rate for overall accesses
system.l2.demand_avg_miss_latency::.cpu.inst 104576.832151                       # average overall miss latency
system.l2.demand_avg_miss_latency::.cpu.data 110153.352499                       # average overall miss latency
system.l2.demand_avg_miss_latency::total 110134.207707                       # average overall miss latency
system.l2.overall_avg_miss_latency::.cpu.inst 104576.832151                       # average overall miss latency
system.l2.overall_avg_miss_latency::.cpu.data 110153.352499                       # average overall miss latency
system.l2.overall_avg_miss_latency::total 110134.207707                       # average overall miss latency
system.l2.blocked_cycles::no_mshrs                  0                       # number of cycles access was blocked
system.l2.blocked_cycles::no_targets                0                       # number of cycles access was blocked
system.l2.blocked::no_mshrs                         0                       # number of cycles access was blocked
system.l2.blocked::no_targets                       0                       # number of cycles access was blocked
system.l2.avg_blocked_cycles::no_mshrs            nan                       # average number of cycles each access was blocked
system.l2.avg_blocked_cycles::no_targets          nan                       # average number of cycles each access was blocked
system.l2.writebacks::.writebacks               72922                       # number of writebacks
system.l2.writebacks::total                     72922                       # number of writebacks
system.l2.demand_mshr_hits::.cpu.data               5                       # number of demand (read+write) MSHR hits
system.l2.demand_mshr_hits::total                   5                       # number of demand (read+write) MSHR hits
system.l2.overall_mshr_hits::.cpu.data              5                       # number of overall MSHR hits
system.l2.overall_mshr_hits::total                  5                       # number of overall MSHR hits
system.l2.demand_mshr_misses::.cpu.inst           423                       # number of demand (read+write) MSHR misses
system.l2.demand_mshr_misses::.cpu.data        122784                       # number of demand (read+write) MSHR misses
system.l2.demand_mshr_misses::total            123207                       # number of demand (read+write) MSHR misses
system.l2.overall_mshr_misses::.cpu.inst          423                       # number of overall MSHR misses
system.l2.overall_mshr_misses::.cpu.data       122784                       # number of overall MSHR misses
system.l2.overall_mshr_misses::total           123207                       # number of overall MSHR misses
system.l2.demand_mshr_miss_latency::.cpu.inst     35776000                       # number of demand (read+write) MSHR miss cycles
system.l2.demand_mshr_miss_latency::.cpu.data  11069501000                       # number of demand (read+write) MSHR miss cycles
system.l2.demand_mshr_miss_latency::total  11105277000                       # number of demand (read+write) MSHR miss cycles
system.l2.overall_mshr_miss_latency::.cpu.inst     35776000                       # number of overall MSHR miss cycles
system.l2.overall_mshr_miss_latency::.cpu.data  11069501000                       # number of overall MSHR miss cycles
system.l2.overall_mshr_miss_latency::total  11105277000                       # number of overall MSHR miss cycles
system.l2.demand_mshr_miss_rate::.cpu.inst     0.780443                       # mshr miss rate for demand accesses
system.l2.demand_mshr_miss_rate::.cpu.data     0.173234                       # mshr miss rate for demand accesses
system.l2.demand_mshr_miss_rate::total       0.173698                       # mshr miss rate for demand accesses
system.l2.overall_mshr_miss_rate::.cpu.inst     0.780443                       # mshr miss rate for overall accesses
system.l2.overall_mshr_miss_rate::.cpu.data     0.173234                       # mshr miss rate for overall accesses
system.l2.overall_mshr_miss_rate::total      0.173698                       # mshr miss rate for overall accesses
system.l2.demand_avg_mshr_miss_latency::.cpu.inst 84576.832151                       # average overall mshr miss latency
system.l2.demand_avg_mshr_miss_latency::.cpu.data 90154.262770                       # average overall mshr miss latency
system.l2.demand_avg_mshr_miss_latency::total 90135.114076                       # average overall mshr miss latency
system.l2.overall_avg_mshr_miss_latency::.cpu.inst 84576.832151                       # average overall mshr miss latency
system.l2.overall_avg_mshr_miss_latency::.cpu.data 90154.262770                       # average overall mshr miss latency
system.l2.overall_avg_mshr_miss_latency::total 90135.114076                       # average overall mshr miss latency
system.l2.replacements                         106933                       # number of replacements
system.l2.WritebackDirty_hits::.writebacks       658105                       # number of WritebackDirty hits
system.l2.WritebackDirty_hits::total           658105                       # number of WritebackDirty hits
system.l2.WritebackDirty_accesses::.writebacks       658105                       # number of WritebackDirty accesses(hits+misses)
system.l2.WritebackDirty_accesses::total       658105                       # number of WritebackDirty accesses(hits+misses)
system.l2.WritebackClean_hits::.writebacks          291                       # number of WritebackClean hits
system.l2.WritebackClean_hits::total              291                       # number of WritebackClean hits
system.l2.WritebackClean_accesses::.writebacks          291                       # number of WritebackClean accesses(hits+misses)
system.l2.WritebackClean_accesses::total          291                       # number of WritebackClean accesses(hits+misses)
system.l2.CleanEvict_mshr_misses::.writebacks            1                       # number of CleanEvict MSHR misses
system.l2.CleanEvict_mshr_misses::total             1                       # number of CleanEvict MSHR misses
system.l2.CleanEvict_mshr_miss_rate::.writebacks          inf                       # mshr miss rate for CleanEvict accesses
system.l2.CleanEvict_mshr_miss_rate::total          inf                       # mshr miss rate for CleanEvict accesses
system.l2.ReadExReq_hits::.cpu.data            204074                       # number of ReadExReq hits
system.l2.ReadExReq_hits::total                204074                       # number of ReadExReq hits
system.l2.ReadExReq_misses::.cpu.data           85188                       # number of ReadExReq misses
system.l2.ReadExReq_misses::total               85188                       # number of ReadExReq misses
system.l2.ReadExReq_miss_latency::.cpu.data   9515763000                       # number of ReadExReq miss cycles
system.l2.ReadExReq_miss_latency::total    9515763000                       # number of ReadExReq miss cycles
system.l2.ReadExReq_accesses::.cpu.data        289262                       # number of ReadExReq accesses(hits+misses)
system.l2.ReadExReq_accesses::total            289262                       # number of ReadExReq accesses(hits+misses)
system.l2.ReadExReq_miss_rate::.cpu.data     0.294501                       # miss rate for ReadExReq accesses
system.l2.ReadExReq_miss_rate::total         0.294501                       # miss rate for ReadExReq accesses
system.l2.ReadExReq_avg_miss_latency::.cpu.data 111703.091985                       # average ReadExReq miss latency
system.l2.ReadExReq_avg_miss_latency::total 111703.091985                       # average ReadExReq miss latency
system.l2.ReadExReq_mshr_misses::.cpu.data        85188                       # number of ReadExReq MSHR misses
system.l2.ReadExReq_mshr_misses::total          85188                       # number of ReadExReq MSHR misses
system.l2.ReadExReq_mshr_miss_latency::.cpu.data   7812003000                       # number of ReadExReq MSHR miss cycles
system.l2.ReadExReq_mshr_miss_latency::total   7812003000                       # number of ReadExReq MSHR miss cycles
system.l2.ReadExReq_mshr_miss_rate::.cpu.data     0.294501                       # mshr miss rate for ReadExReq accesses
system.l2.ReadExReq_mshr_miss_rate::total     0.294501                       # mshr miss rate for ReadExReq accesses
system.l2.ReadExReq_avg_mshr_miss_latency::.cpu.data 91703.091985                       # average ReadExReq mshr miss latency
system.l2.ReadExReq_avg_mshr_miss_latency::total 91703.091985                       # average ReadExReq mshr miss latency
system.l2.ReadCleanReq_hits::.cpu.inst            119                       # number of ReadCleanReq hits
system.l2.ReadCleanReq_hits::total                119                       # number of ReadCleanReq hits
system.l2.ReadCleanReq_misses::.cpu.inst          423                       # number of ReadCleanReq misses
system.l2.ReadCleanReq_misses::total              423                       # number of ReadCleanReq misses
system.l2.ReadCleanReq_miss_latency::.cpu.inst     44236000                       # number of ReadCleanReq miss cycles
system.l2.ReadCleanReq_miss_latency::total     44236000                       # number of ReadCleanReq miss cycles
system.l2.ReadCleanReq_accesses::.cpu.inst          542                       # number of ReadCleanReq accesses(hits+misses)
system.l2.ReadCleanReq_accesses::total            542                       # number of ReadCleanReq accesses(hits+misses)
system.l2.ReadCleanReq_miss_rate::.cpu.inst     0.780443                       # miss rate for ReadCleanReq accesses
system.l2.ReadCleanReq_miss_rate::total      0.780443                       # miss rate for ReadCleanReq accesses
system.l2.ReadCleanReq_avg_miss_latency::.cpu.inst 104576.832151                       # average ReadCleanReq miss latency
system.l2.ReadCleanReq_avg_miss_latency::total 104576.832151                       # average ReadCleanReq miss latency
system.l2.ReadCleanReq_mshr_misses::.cpu.inst          423                       # number of ReadCleanReq MSHR misses
system.l2.ReadCleanReq_mshr_misses::total          423                       # number of ReadCleanReq MSHR misses
system.l2.ReadCleanReq_mshr_miss_latency::.cpu.inst     35776000                       # number of ReadCleanReq MSHR miss cycles
system.l2.ReadCleanReq_mshr_miss_latency::total     35776000                       # number of ReadCleanReq MSHR miss cycles
system.l2.ReadCleanReq_mshr_miss_rate::.cpu.inst     0.780443                       # mshr miss rate for ReadCleanReq accesses
system.l2.ReadCleanReq_mshr_miss_rate::total     0.780443                       # mshr miss rate for ReadCleanReq accesses
system.l2.ReadCleanReq_avg_mshr_miss_latency::.cpu.inst 84576.832151                       # average ReadCleanReq mshr miss latency
system.l2.ReadCleanReq_avg_mshr_miss_latency::total 84576.832151                       # average ReadCleanReq mshr miss latency
system.l2.ReadSharedReq_hits::.cpu.data        381912                       # number of ReadSharedReq hits
system.l2.ReadSharedReq_hits::total            381912                       # number of ReadSharedReq hits
system.l2.ReadSharedReq_misses::.cpu.data        37601                       # number of ReadSharedReq misses
system.l2.ReadSharedReq_misses::total           37601                       # number of ReadSharedReq misses
system.l2.ReadSharedReq_miss_latency::.cpu.data   4009857000                       # number of ReadSharedReq miss cycles
system.l2.ReadSharedReq_miss_latency::total   4009857000                       # number of ReadSharedReq miss cycles
system.l2.ReadSharedReq_accesses::.cpu.data       419513                       # number of ReadSharedReq accesses(hits+misses)
system.l2.ReadSharedReq_accesses::total        419513                       # number of ReadSharedReq accesses(hits+misses)
system.l2.ReadSharedReq_miss_rate::.cpu.data     0.089630                       # miss rate for ReadSharedReq accesses
system.l2.ReadSharedReq_miss_rate::total     0.089630                       # miss rate for ReadSharedReq accesses
system.l2.ReadSharedReq_avg_miss_latency::.cpu.data 106642.296747                       # average ReadSharedReq miss latency
system.l2.ReadSharedReq_avg_miss_latency::total 106642.296747                       # average ReadSharedReq miss latency
system.l2.ReadSharedReq_mshr_hits::.cpu.data            5                       # number of ReadSharedReq MSHR hits
system.l2.ReadSharedReq_mshr_hits::total            5                       # number of ReadSharedReq MSHR hits
system.l2.ReadSharedReq_mshr_misses::.cpu.data        37596                       # number of ReadSharedReq MSHR misses
system.l2.ReadSharedReq_mshr_misses::total        37596                       # number of ReadSharedReq MSHR misses
system.l2.ReadSharedReq_mshr_miss_latency::.cpu.data   3257498000                       # number of ReadSharedReq MSHR miss cycles
system.l2.ReadSharedReq_mshr_miss_latency::total   3257498000                       # number of ReadSharedReq MSHR miss cycles
system.l2.ReadSharedReq_mshr_miss_rate::.cpu.data     0.089618                       # mshr miss rate for ReadSharedReq accesses
system.l2.ReadSharedReq_mshr_miss_rate::total     0.089618                       # mshr miss rate for ReadSharedReq accesses
system.l2.ReadSharedReq_avg_mshr_miss_latency::.cpu.data 86644.802639                       # average ReadSharedReq mshr miss latency
system.l2.ReadSharedReq_avg_mshr_miss_latency::total 86644.802639                       # average ReadSharedReq mshr miss latency
system.l2.tags.pwrStateResidencyTicks::UNDEFINED 160654868000                       # Cumulative time (in ticks) in various power states
system.l2.tags.tagsinuse                 16084.245781                       # Cycle average of tags in use
system.l2.tags.total_refs                     1417710                       # Total number of references to valid blocks.
system.l2.tags.sampled_refs                    123317                       # Sample count of references to valid blocks.
system.l2.tags.avg_refs                     11.496468                       # Average number of references to valid blocks.
system.l2.tags.warmup_cycle                     92000                       # Cycle when the warmup percentage was hit.
system.l2.tags.occ_blocks::.writebacks      39.356152                       # Average occupied blocks per requestor
system.l2.tags.occ_blocks::.cpu.inst        50.314425                       # Average occupied blocks per requestor
system.l2.tags.occ_blocks::.cpu.data     15994.575203                       # Average occupied blocks per requestor
system.l2.tags.occ_percent::.writebacks      0.002402                       # Average percentage of cache occupancy
system.l2.tags.occ_percent::.cpu.inst        0.003071                       # Average percentage of cache occupancy
system.l2.tags.occ_percent::.cpu.data        0.976231                       # Average percentage of cache occupancy
system.l2.tags.occ_percent::total            0.981704                       # Average percentage of cache occupancy
system.l2.tags.occ_task_id_blocks::1024         16384                       # Occupied blocks per task id
system.l2.tags.age_task_id_blocks_1024::0           37                       # Occupied blocks per task id
system.l2.tags.age_task_id_blocks_1024::1           21                       # Occupied blocks per task id
system.l2.tags.age_task_id_blocks_1024::2          321                       # Occupied blocks per task id
system.l2.tags.age_task_id_blocks_1024::3         5660                       # Occupied blocks per task id
system.l2.tags.age_task_id_blocks_1024::4        10345                       # Occupied blocks per task id
system.l2.tags.occ_task_id_percent::1024            1                       # Percentage of cache occupancy per task id
system.l2.tags.tag_accesses                  11465045                       # Number of tag accesses
system.l2.tags.data_accesses                 11465045                       # Number of data accesses
system.cpu_voltage_domain.voltage                   1                       # Voltage in Volts
system.mem_ctrls.pwrStateResidencyTicks::UNDEFINED 160654868000                       # Cumulative time (in ticks) in various power states
system.mem_ctrls.bytes_read::.cpu.inst          54144                       # Number of bytes read from this memory
system.mem_ctrls.bytes_read::.cpu.data       15716352                       # Number of bytes read from this memory
system.mem_ctrls.bytes_read::total           15770496                       # Number of bytes read from this memory
system.mem_ctrls.bytes_inst_read::.cpu.inst        54144                       # Number of instructions bytes read from this memory
system.mem_ctrls.bytes_inst_read::total         54144                       # Number of instructions bytes read from this memory
system.mem_ctrls.bytes_written::.writebacks      9334016                       # Number of bytes written to this memory
system.mem_ctrls.bytes_written::total         9334016                       # Number of bytes written to this memory
system.mem_ctrls.num_reads::.cpu.inst             423                       # Number of read requests responded to by this memory
system.mem_ctrls.num_reads::.cpu.data          122784                       # Number of read requests responded to by this memory
system.mem_ctrls.num_reads::total              123207                       # Number of read requests responded to by this memory
system.mem_ctrls.num_writes::.writebacks        72922                       # Number of write requests responded to by this memory
system.mem_ctrls.num_writes::total              72922                       # Number of write requests responded to by this memory
system.mem_ctrls.bw_read::.cpu.inst            337021                       # Total read bandwidth from this memory (bytes/s)
system.mem_ctrls.bw_read::.cpu.data          97826802                       # Total read bandwidth from this memory (bytes/s)
system.mem_ctrls.bw_read::total              98163823                       # Total read bandwidth from this memory (bytes/s)
system.mem_ctrls.bw_inst_read::.cpu.inst       337021                       # Instruction read bandwidth from this memory (bytes/s)
system.mem_ctrls.bw_inst_read::total           337021                       # Instruction read bandwidth from this memory (bytes/s)
system.mem_ctrls.bw_write::.writebacks       58099802                       # Write bandwidth from this memory (bytes/s)
system.mem_ctrls.bw_write::total             58099802                       # Write bandwidth from this memory (bytes/s)
system.mem_ctrls.bw_total::.writebacks       58099802                       # Total bandwidth to/from this memory (bytes/s)
system.mem_ctrls.bw_total::.cpu.inst           337021                       # Total bandwidth to/from this memory (bytes/s)
system.mem_ctrls.bw_total::.cpu.data         97826802                       # Total bandwidth to/from this memory (bytes/s)
system.mem_ctrls.bw_total::total            156263625                       # Total bandwidth to/from this memory (bytes/s)
system.mem_ctrls.avgPriority_.writebacks::samples    145844.00                       # Average QoS priority value for accepted requests
system.mem_ctrls.avgPriority_.cpu.inst::samples       846.00                       # Average QoS priority value for accepted requests
system.mem_ctrls.avgPriority_.cpu.data::samples    245534.00                       # Average QoS priority value for accepted requests
system.mem_ctrls.priorityMinLatency      0.000000018750                       # per QoS priority minimum request to response latency (s)
system.mem_ctrls.priorityMaxLatency      0.006795675500                       # per QoS priority maximum request to response latency (s)
system.mem_ctrls.numReadWriteTurnArounds         8705                       # Number of turnarounds from READ to WRITE
system.mem_ctrls.numWriteReadTurnArounds         8705                       # Number of turnarounds from WRITE to READ
system.mem_ctrls.numStayReadState              472975                       # Number of times bus staying in READ state
system.mem_ctrls.numStayWriteState             137278                       # Number of times bus staying in WRITE state
system.mem_ctrls.readReqs                      123207                       # Number of read requests accepted
system.mem_ctrls.writeReqs                      72922                       # Number of write requests accepted
system.mem_ctrls.readBursts                    246414                       # Number of DRAM read bursts, including those serviced by the write queue
system.mem_ctrls.writeBursts                   145844                       # Number of DRAM write bursts, including those merged in the write queue
system.mem_ctrls.servicedByWrQ                     34                       # Number of DRAM read bursts serviced by the write queue
system.mem_ctrls.mergedWrBursts                     0                       # Number of DRAM write bursts merged with an existing one
system.mem_ctrls.neitherReadNorWriteReqs            0                       # Number of requests that are neither read nor write
system.mem_ctrls.perBankRdBursts::0             15864                       # Per bank write bursts
system.mem_ctrls.perBankRdBursts::1             15656                       # Per bank write bursts
system.mem_ctrls.perBankRdBursts::2             15662                       # Per bank write bursts
system.mem_ctrls.perBankRdBursts::3             15334                       # Per bank write bursts
system.mem_ctrls.perBankRdBursts::4             15374                       # Per bank write bursts
system.mem_ctrls.perBankRdBursts::5             15268                       # Per bank write bursts
system.mem_ctrls.perBankRdBursts::6             15138                       # Per bank write bursts
system.mem_ctrls.perBankRdBursts::7             15248                       # Per bank write bursts
system.mem_ctrls.perBankRdBursts::8             15196                       # Per bank write bursts
system.mem_ctrls.perBankRdBursts::9             15174                       # Per bank write bursts
system.mem_ctrls.perBankRdBursts::10            15286                       # Per bank write bursts
system.mem_ctrls.perBankRdBursts::11            15304                       # Per bank write bursts
system.mem_ctrls.perBankRdBursts::12            15446                       # Per bank write bursts
system.mem_ctrls.perBankRdBursts::13            15432                       # Per bank write bursts
system.mem_ctrls.perBankRdBursts::14            15454                       # Per bank write bursts
system.mem_ctrls.perBankRdBursts::15            15544                       # Per bank write bursts
system.mem_ctrls.perBankWrBursts::0              9349                       # Per bank write bursts
system.mem_ctrls.perBankWrBursts::1              9378                       # Per bank write bursts
system.mem_ctrls.perBankWrBursts::2              9384                       # Per bank write bursts
system.mem_ctrls.perBankWrBursts::3              9142                       # Per bank write bursts
system.mem_ctrls.perBankWrBursts::4              9126                       # Per bank write bursts
system.mem_ctrls.perBankWrBursts::5              9088                       # Per bank write bursts
system.mem_ctrls.perBankWrBursts::6              8984                       # Per bank write bursts
system.mem_ctrls.perBankWrBursts::7              8964                       # Per bank write bursts
system.mem_ctrls.perBankWrBursts::8              8966                       # Per bank write bursts
system.mem_ctrls.perBankWrBursts::9              8922                       # Per bank write bursts
system.mem_ctrls.perBankWrBursts::10             9012                       # Per bank write bursts
system.mem_ctrls.perBankWrBursts::11             8960                       # Per bank write bursts
system.mem_ctrls.perBankWrBursts::12             9080                       # Per bank write bursts
system.mem_ctrls.perBankWrBursts::13             9142                       # Per bank write bursts
system.mem_ctrls.perBankWrBursts::14             9174                       # Per bank write bursts
system.mem_ctrls.perBankWrBursts::15             9152                       # Per bank write bursts
system.mem_ctrls.avgRdQLen                       2.03                       # Average read queue length when enqueuing
system.mem_ctrls.avgWrQLen                      25.42                       # Average write queue length when enqueuing
system.mem_ctrls.totQLat                   4304257250                       # Total ticks spent queuing
system.mem_ctrls.totBusLat                 1231900000                       # Total ticks spent in databus transfers
system.mem_ctrls.totMemAccLat              8923882250                       # Total ticks spent from burst creation until serviced by the DRAM
system.mem_ctrls.avgQLat                     17469.99                       # Average queueing delay per DRAM burst
system.mem_ctrls.avgBusLat                    5000.00                       # Average bus latency per DRAM burst
system.mem_ctrls.avgMemAccLat                36219.99                       # Average memory access latency per DRAM burst
system.mem_ctrls.numRdRetry                         0                       # Number of times read queue was full causing retry
system.mem_ctrls.numWrRetry                         0                       # Number of times write queue was full causing retry
system.mem_ctrls.readRowHits                   200404                       # Number of row buffer hits during reads
system.mem_ctrls.writeRowHits                  116068                       # Number of row buffer hits during writes
system.mem_ctrls.readRowHitRate                 81.34                       # Row buffer hit rate for reads
system.mem_ctrls.writeRowHitRate                79.58                       # Row buffer hit rate for writes
system.mem_ctrls.readPktSize::0                     0                       # Read request sizes (log2)
system.mem_ctrls.readPktSize::1                     0                       # Read request sizes (log2)
system.mem_ctrls.readPktSize::2                     0                       # Read request sizes (log2)
system.mem_ctrls.readPktSize::3                     0                       # Read request sizes (log2)
system.mem_ctrls.readPktSize::4                     0                       # Read request sizes (log2)
system.mem_ctrls.readPktSize::5                     0                       # Read request sizes (log2)
system.mem_ctrls.readPktSize::6                246414                       # Read request sizes (log2)
system.mem_ctrls.writePktSize::0                    0                       # Write request sizes (log2)
system.mem_ctrls.writePktSize::1                    0                       # Write request sizes (log2)
system.mem_ctrls.writePktSize::2                    0                       # Write request sizes (log2)
system.mem_ctrls.writePktSize::3                    0                       # Write request sizes (log2)
system.mem_ctrls.writePktSize::4                    0                       # Write request sizes (log2)
system.mem_ctrls.writePktSize::5                    0                       # Write request sizes (log2)
system.mem_ctrls.writePktSize::6               145844                       # Write request sizes (log2)
system.mem_ctrls.rdQLenPdf::0                  107843                       # What read queue length does an incoming req see
system.mem_ctrls.rdQLenPdf::1                  116880                       # What read queue length does an incoming req see
system.mem_ctrls.rdQLenPdf::2                   15343                       # What read queue length does an incoming req see
system.mem_ctrls.rdQLenPdf::3                    6306                       # What read queue length does an incoming req see
system.mem_ctrls.rdQLenPdf::4                       3                       # What read queue length does an incoming req see
system.mem_ctrls.rdQLenPdf::5                       3                       # What read queue length does an incoming req see
system.mem_ctrls.rdQLenPdf::6                       1                       # What read queue length does an incoming req see
system.mem_ctrls.rdQLenPdf::7                       1                       # What read queue length does an incoming req see
system.mem_ctrls.rdQLenPdf::8                       0                       # What read queue length does an incoming req see
system.mem_ctrls.rdQLenPdf::9                       0                       # What read queue length does an incoming req see
system.mem_ctrls.rdQLenPdf::10                      0                       # What read queue length does an incoming req see
system.mem_ctrls.rdQLenPdf::11                      0                       # What read queue length does an incoming req see
system.mem_ctrls.rdQLenPdf::12                      0                       # What read queue length does an incoming req see
system.mem_ctrls.rdQLenPdf::13                      0                       # What read queue length does an incoming req see
system.mem_ctrls.rdQLenPdf::14                      0                       # What read queue length does an incoming req see
system.mem_ctrls.rdQLenPdf::15                      0                       # What read queue length does an incoming req see
system.mem_ctrls.rdQLenPdf::16                      0                       # What read queue length does an incoming req see
system.mem_ctrls.rdQLenPdf::17                      0                       # What read queue length does an incoming req see
system.mem_ctrls.rdQLenPdf::18                      0                       # What read queue length does an incoming req see
system.mem_ctrls.rdQLenPdf::19                      0                       # What read queue length does an incoming req see
system.mem_ctrls.rdQLenPdf::20                      0                       # What read queue length does an incoming req see
system.mem_ctrls.rdQLenPdf::21                      0                       # What read queue length does an incoming req see
system.mem_ctrls.rdQLenPdf::22                      0                       # What read queue length does an incoming req see
system.mem_ctrls.rdQLenPdf::23                      0                       # What read queue length does an incoming req see
system.mem_ctrls.rdQLenPdf::24                      0                       # What read queue length does an incoming req see
system.mem_ctrls.rdQLenPdf::25                      0                       # What read queue length does an incoming req see
system.mem_ctrls.rdQLenPdf::26                      0                       # What read queue length does an incoming req see
system.mem_ctrls.rdQLenPdf::27                      0                       # What read queue length does an incoming req see
system.mem_ctrls.rdQLenPdf::28                      0                       # What read queue length does an incoming req see
system.mem_ctrls.rdQLenPdf::29                      0                       # What read queue length does an incoming req see
system.mem_ctrls.rdQLenPdf::30                      0                       # What read queue length does an incoming req see
system.mem_ctrls.rdQLenPdf::31                      0                       # What read queue length does an incoming req see
system.mem_ctrls.wrQLenPdf::0                       1                       # What write queue length does an incoming req see
system.mem_ctrls.wrQLenPdf::1                       1                       # What write queue length does an incoming req see
system.mem_ctrls.wrQLenPdf::2                       1                       # What write queue length does an incoming req see
system.mem_ctrls.wrQLenPdf::3                       1                       # What write queue length does an incoming req see
system.mem_ctrls.wrQLenPdf::4                       1                       # What write queue length does an incoming req see
system.mem_ctrls.wrQLenPdf::5                       1                       # What write queue length does an incoming req see
system.mem_ctrls.wrQLenPdf::6                       1                       # What write queue length does an incoming req see
system.mem_ctrls.wrQLenPdf::7                       1                       # What write queue length does an incoming req see
system.mem_ctrls.wrQLenPdf::8                       1                       # What write queue length does an incoming req see
system.mem_ctrls.wrQLenPdf::9                       1                       # What write queue length does an incoming req see
system.mem_ctrls.wrQLenPdf::10                      1                       # What write queue length does an incoming req see
system.mem_ctrls.wrQLenPdf::11                      1                       # What write queue length does an incoming req see
system.mem_ctrls.wrQLenPdf::12                      1                       # What write queue length does an incoming req see
system.mem_ctrls.wrQLenPdf::13                      1                       # What write queue length does an incoming req see
system.mem_ctrls.wrQLenPdf::14                      1                       # What write queue length does an incoming req see
system.mem_ctrls.wrQLenPdf::15                   2723                       # What write queue length does an incoming req see
system.mem_ctrls.wrQLenPdf::16                   2915                       # What write queue length does an incoming req see
system.mem_ctrls.wrQLenPdf::17                   4652                       # What write queue length does an incoming req see
system.mem_ctrls.wrQLenPdf::18                   8491                       # What write queue length does an incoming req see
system.mem_ctrls.wrQLenPdf::19                   8557                       # What write queue length does an incoming req see
system.mem_ctrls.wrQLenPdf::20                   8801                       # What write queue length does an incoming req see
system.mem_ctrls.wrQLenPdf::21                   8985                       # What write queue length does an incoming req see
system.mem_ctrls.wrQLenPdf::22                   8972                       # What write queue length does an incoming req see
system.mem_ctrls.wrQLenPdf::23                   8848                       # What write queue length does an incoming req see
system.mem_ctrls.wrQLenPdf::24                   8807                       # What write queue length does an incoming req see
system.mem_ctrls.wrQLenPdf::25                   8740                       # What write queue length does an incoming req see
system.mem_ctrls.wrQLenPdf::26                   8759                       # What write queue length does an incoming req see
system.mem_ctrls.wrQLenPdf::27                   8756                       # What write queue length does an incoming req see
system.mem_ctrls.wrQLenPdf::28                   8721                       # What write queue length does an incoming req see
system.mem_ctrls.wrQLenPdf::29                   8745                       # What write queue length does an incoming req see
system.mem_ctrls.wrQLenPdf::30                   8740                       # What write queue length does an incoming req see
system.mem_ctrls.wrQLenPdf::31                   8706                       # What write queue length does an incoming req see
system.mem_ctrls.wrQLenPdf::32                   8705                       # What write queue length does an incoming req see
system.mem_ctrls.wrQLenPdf::33                   4200                       # What write queue length does an incoming req see
system.mem_ctrls.wrQLenPdf::34                      3                       # What write queue length does an incoming req see
system.mem_ctrls.wrQLenPdf::35                      3                       # What write queue length does an incoming req see
system.mem_ctrls.wrQLenPdf::36                      0                       # What write queue length does an incoming req see
system.mem_ctrls.wrQLenPdf::37                      0                       # What write queue length does an incoming req see
system.mem_ctrls.wrQLenPdf::38                      0                       # What write queue length does an incoming req see
system.mem_ctrls.wrQLenPdf::39                      0                       # What write queue length does an incoming req see
system.mem_ctrls.wrQLenPdf::40                      0                       # What write queue length does an incoming req see
system.mem_ctrls.wrQLenPdf::41                      0                       # What write queue length does an incoming req see
system.mem_ctrls.wrQLenPdf::42                      0                       # What write queue length does an incoming req see
system.mem_ctrls.wrQLenPdf::43                      0                       # What write queue length does an incoming req see
system.mem_ctrls.wrQLenPdf::44                      0                       # What write queue length does an incoming req see
system.mem_ctrls.wrQLenPdf::45                      0                       # What write queue length does an incoming req see
system.mem_ctrls.wrQLenPdf::46                      0                       # What write queue length does an incoming req see
system.mem_ctrls.wrQLenPdf::47                      0                       # What write queue length does an incoming req see
system.mem_ctrls.wrQLenPdf::48                      0                       # What write queue length does an incoming req see
system.mem_ctrls.wrQLenPdf::49                      0                       # What write queue length does an incoming req see
system.mem_ctrls.wrQLenPdf::50                      0                       # What write queue length does an incoming req see
system.mem_ctrls.wrQLenPdf::51                      0                       # What write queue length does an incoming req see
system.mem_ctrls.wrQLenPdf::52                      0                       # What write queue length does an incoming req see
system.mem_ctrls.wrQLenPdf::53                      0                       # What write queue length does an incoming req see
system.mem_ctrls.wrQLenPdf::54                      0                       # What write queue length does an incoming req see
system.mem_ctrls.wrQLenPdf::55                      0                       # What write queue length does an incoming req see
system.mem_ctrls.wrQLenPdf::56                      0                       # What write queue length does an incoming req see
system.mem_ctrls.wrQLenPdf::57                      0                       # What write queue length does an incoming req see
system.mem_ctrls.wrQLenPdf::58                      0                       # What write queue length does an incoming req see
system.mem_ctrls.wrQLenPdf::59                      0                       # What write queue length does an incoming req see
system.mem_ctrls.wrQLenPdf::60                      0                       # What write queue length does an incoming req see
system.mem_ctrls.wrQLenPdf::61                      0                       # What write queue length does an incoming req see
system.mem_ctrls.wrQLenPdf::62                      0                       # What write queue length does an incoming req see
system.mem_ctrls.wrQLenPdf::63                      0                       # What write queue length does an incoming req see
system.mem_ctrls.bytesPerActivate::samples        75725                       # Bytes accessed per row activation
system.mem_ctrls.bytesPerActivate::mean    331.466332                       # Bytes accessed per row activation
system.mem_ctrls.bytesPerActivate::gmean   214.796153                       # Bytes accessed per row activation
system.mem_ctrls.bytesPerActivate::stdev   347.242659                       # Bytes accessed per row activation
system.mem_ctrls.bytesPerActivate::0-127         3543      4.68%      4.68% # Bytes accessed per row activation
system.mem_ctrls.bytesPerActivate::128-255        46429     61.31%     65.99% # Bytes accessed per row activation
system.mem_ctrls.bytesPerActivate::256-383         5566      7.35%     73.34% # Bytes accessed per row activation
system.mem_ctrls.bytesPerActivate::384-511         2997      3.96%     77.30% # Bytes accessed per row activation
system.mem_ctrls.bytesPerActivate::512-639         1231      1.63%     78.93% # Bytes accessed per row activation
system.mem_ctrls.bytesPerActivate::640-767         1089      1.44%     80.36% # Bytes accessed per row activation
system.mem_ctrls.bytesPerActivate::768-895          834      1.10%     81.46% # Bytes accessed per row activation
system.mem_ctrls.bytesPerActivate::896-1023          806      1.06%     82.53% # Bytes accessed per row activation
system.mem_ctrls.bytesPerActivate::1024-1151        13230     17.47%    100.00% # Bytes accessed per row activation
system.mem_ctrls.bytesPerActivate::total        75725                       # Bytes accessed per row activation
system.mem_ctrls.rdPerTurnAround::samples         8705                       # Reads before turning the bus around for writes
system.mem_ctrls.rdPerTurnAround::mean      28.302814                       # Reads before turning the bus around for writes
system.mem_ctrls.rdPerTurnAround::gmean     22.547020                       # Reads before turning the bus around for writes
system.mem_ctrls.rdPerTurnAround::stdev     61.672375                       # Reads before turning the bus around for writes
system.mem_ctrls.rdPerTurnAround::0-255          8676     99.67%     99.67% # Reads before turning the bus around for writes
system.mem_ctrls.rdPerTurnAround::256-511           25      0.29%     99.95% # Reads before turning the bus around for writes
system.mem_ctrls.rdPerTurnAround::512-767            2      0.02%     99.98% # Reads before turning the bus around for writes
system.mem_ctrls.rdPerTurnAround::1536-1791            1      0.01%     99.99% # Reads before turning the bus around for writes
system.mem_ctrls.rdPerTurnAround::4608-4863            1      0.01%    100.00% # Reads before turning the bus around for writes
[...]
system.cpu.icache.ReadReq_avg_miss_latency::.cpu.inst 91527.675277                       # average ReadReq miss latency
system.cpu.icache.ReadReq_avg_miss_latency::total 91527.675277                       # average ReadReq miss latency
system.cpu.icache.ReadReq_mshr_misses::.cpu.inst          542                       # number of ReadReq MSHR misses
system.cpu.icache.ReadReq_mshr_misses::total          542                       # number of ReadReq MSHR misses
system.cpu.icache.ReadReq_mshr_miss_latency::.cpu.inst     48524000                       # number of ReadReq MSHR miss cycles
system.cpu.icache.ReadReq_mshr_miss_latency::total     48524000                       # number of ReadReq MSHR miss cycles
system.cpu.icache.ReadReq_mshr_miss_rate::.cpu.inst     0.000067                       # mshr miss rate for ReadReq accesses
system.cpu.icache.ReadReq_mshr_miss_rate::total     0.000067                       # mshr miss rate for ReadReq accesses
system.cpu.icache.ReadReq_avg_mshr_miss_latency::.cpu.inst 89527.675277                       # average ReadReq mshr miss latency
system.cpu.icache.ReadReq_avg_mshr_miss_latency::total 89527.675277                       # average ReadReq mshr miss latency
system.cpu.icache.tags.pwrStateResidencyTicks::UNDEFINED 160654868000                       # Cumulative time (in ticks) in various power states
system.cpu.icache.tags.tagsinuse           205.618091                       # Cycle average of tags in use
system.cpu.icache.tags.total_refs             8051205                       # Total number of references to valid blocks.
system.cpu.icache.tags.sampled_refs               542                       # Sample count of references to valid blocks.
system.cpu.icache.tags.avg_refs          14854.621771                       # Average number of references to valid blocks.
system.cpu.icache.tags.warmup_cycle            113000                       # Cycle when the warmup percentage was hit.
system.cpu.icache.tags.occ_blocks::.cpu.inst   205.618091                       # Average occupied blocks per requestor
system.cpu.icache.tags.occ_percent::.cpu.inst     0.803196                       # Average percentage of cache occupancy
system.cpu.icache.tags.occ_percent::total     0.803196                       # Average percentage of cache occupancy
system.cpu.icache.tags.occ_task_id_blocks::1024          238                       # Occupied blocks per task id
system.cpu.icache.tags.age_task_id_blocks_1024::4          238                       # Occupied blocks per task id
system.cpu.icache.tags.occ_task_id_percent::1024     0.929688                       # Percentage of cache occupancy per task id
system.cpu.icache.tags.tag_accesses          16102952                       # Number of tag accesses
system.cpu.icache.tags.data_accesses         16102952                       # Number of data accesses
system.cpu.dtb.walker.pwrStateResidencyTicks::UNDEFINED 160654868000                       # Cumulative time (in ticks) in various power states
system.cpu.dtb.stage2_mmu.stage2_tlb.walker.pwrStateResidencyTicks::UNDEFINED 160654868000                       # Cumulative time (in ticks) in various power states
system.cpu.dcache.pwrStateResidencyTicks::UNDEFINED 160654868000                       # Cumulative time (in ticks) in various power states
system.cpu.dcache.demand_hits::.cpu.data     51314359                       # number of demand (read+write) hits
system.cpu.dcache.demand_hits::total         51314359                       # number of demand (read+write) hits
system.cpu.dcache.overall_hits::.cpu.data     51314923                       # number of overall hits
system.cpu.dcache.overall_hits::total        51314923                       # number of overall hits
system.cpu.dcache.demand_misses::.cpu.data       736671                       # number of demand (read+write) misses
system.cpu.dcache.demand_misses::total         736671                       # number of demand (read+write) misses
system.cpu.dcache.overall_misses::.cpu.data       744525                       # number of overall misses
system.cpu.dcache.overall_misses::total        744525                       # number of overall misses
system.cpu.dcache.demand_miss_latency::.cpu.data  31901917000                       # number of demand (read+write) miss cycles
system.cpu.dcache.demand_miss_latency::total  31901917000                       # number of demand (read+write) miss cycles
system.cpu.dcache.overall_miss_latency::.cpu.data  31901917000                       # number of overall miss cycles
system.cpu.dcache.overall_miss_latency::total  31901917000                       # number of overall miss cycles
system.cpu.dcache.demand_accesses::.cpu.data     52051030                       # number of demand (read+write) accesses
system.cpu.dcache.demand_accesses::total     52051030                       # number of demand (read+write) accesses
system.cpu.dcache.overall_accesses::.cpu.data     52059448                       # number of overall (read+write) accesses
system.cpu.dcache.overall_accesses::total     52059448                       # number of overall (read+write) accesses
system.cpu.dcache.demand_miss_rate::.cpu.data     0.014153                       # miss rate for demand accesses
system.cpu.dcache.demand_miss_rate::total     0.014153                       # miss rate for demand accesses
system.cpu.dcache.overall_miss_rate::.cpu.data     0.014301                       # miss rate for overall accesses
system.cpu.dcache.overall_miss_rate::total     0.014301                       # miss rate for overall accesses
system.cpu.dcache.demand_avg_miss_latency::.cpu.data 43305.514945                       # average overall miss latency
system.cpu.dcache.demand_avg_miss_latency::total 43305.514945                       # average overall miss latency
system.cpu.dcache.overall_avg_miss_latency::.cpu.data 42848.684732                       # average overall miss latency
system.cpu.dcache.overall_avg_miss_latency::total 42848.684732                       # average overall miss latency
system.cpu.dcache.blocked_cycles::no_mshrs            0                       # number of cycles access was blocked
system.cpu.dcache.blocked_cycles::no_targets            0                       # number of cycles access was blocked
system.cpu.dcache.blocked::no_mshrs                 0                       # number of cycles access was blocked
system.cpu.dcache.blocked::no_targets               0                       # number of cycles access was blocked
system.cpu.dcache.avg_blocked_cycles::no_mshrs          nan                       # average number of cycles each access was blocked
system.cpu.dcache.avg_blocked_cycles::no_targets          nan                       # average number of cycles each access was blocked
system.cpu.dcache.writebacks::.writebacks       658105                       # number of writebacks
system.cpu.dcache.writebacks::total            658105                       # number of writebacks
system.cpu.dcache.demand_mshr_hits::.cpu.data        31851                       # number of demand (read+write) MSHR hits
system.cpu.dcache.demand_mshr_hits::total        31851                       # number of demand (read+write) MSHR hits
system.cpu.dcache.overall_mshr_hits::.cpu.data        31851                       # number of overall MSHR hits
system.cpu.dcache.overall_mshr_hits::total        31851                       # number of overall MSHR hits
system.cpu.dcache.demand_mshr_misses::.cpu.data       704820                       # number of demand (read+write) MSHR misses
system.cpu.dcache.demand_mshr_misses::total       704820                       # number of demand (read+write) MSHR misses
system.cpu.dcache.overall_mshr_misses::.cpu.data       708775                       # number of overall MSHR misses
system.cpu.dcache.overall_mshr_misses::total       708775                       # number of overall MSHR misses
system.cpu.dcache.demand_mshr_miss_latency::.cpu.data  27625093000                       # number of demand (read+write) MSHR miss cycles
system.cpu.dcache.demand_mshr_miss_latency::total  27625093000                       # number of demand (read+write) MSHR miss cycles
system.cpu.dcache.overall_mshr_miss_latency::.cpu.data  28037156000                       # number of overall MSHR miss cycles
system.cpu.dcache.overall_mshr_miss_latency::total  28037156000                       # number of overall MSHR miss cycles
system.cpu.dcache.demand_mshr_miss_rate::.cpu.data     0.013541                       # mshr miss rate for demand accesses
system.cpu.dcache.demand_mshr_miss_rate::total     0.013541                       # mshr miss rate for demand accesses
system.cpu.dcache.overall_mshr_miss_rate::.cpu.data     0.013615                       # mshr miss rate for overall accesses
system.cpu.dcache.overall_mshr_miss_rate::total     0.013615                       # mshr miss rate for overall accesses
system.cpu.dcache.demand_avg_mshr_miss_latency::.cpu.data 39194.536194                       # average overall mshr miss latency
system.cpu.dcache.demand_avg_mshr_miss_latency::total 39194.536194                       # average overall mshr miss latency
system.cpu.dcache.overall_avg_mshr_miss_latency::.cpu.data 39557.202215                       # average overall mshr miss latency
system.cpu.dcache.overall_avg_mshr_miss_latency::total 39557.202215                       # average overall mshr miss latency
system.cpu.dcache.replacements                 708263                       # number of replacements
system.cpu.dcache.ReadReq_hits::.cpu.data     40682764                       # number of ReadReq hits
system.cpu.dcache.ReadReq_hits::total        40682764                       # number of ReadReq hits
system.cpu.dcache.ReadReq_misses::.cpu.data       418183                       # number of ReadReq misses
system.cpu.dcache.ReadReq_misses::total        418183                       # number of ReadReq misses
system.cpu.dcache.ReadReq_miss_latency::.cpu.data  13909872000                       # number of ReadReq miss cycles
system.cpu.dcache.ReadReq_miss_latency::total  13909872000                       # number of ReadReq miss cycles
system.cpu.dcache.ReadReq_accesses::.cpu.data     41100947                       # number of ReadReq accesses(hits+misses)
system.cpu.dcache.ReadReq_accesses::total     41100947                       # number of ReadReq accesses(hits+misses)
system.cpu.dcache.ReadReq_miss_rate::.cpu.data     0.010175                       # miss rate for ReadReq accesses
system.cpu.dcache.ReadReq_miss_rate::total     0.010175                       # miss rate for ReadReq accesses
system.cpu.dcache.ReadReq_avg_miss_latency::.cpu.data 33262.643388                       # average ReadReq miss latency
system.cpu.dcache.ReadReq_avg_miss_latency::total 33262.643388                       # average ReadReq miss latency
system.cpu.dcache.ReadReq_mshr_hits::.cpu.data         2625                       # number of ReadReq MSHR hits
system.cpu.dcache.ReadReq_mshr_hits::total         2625                       # number of ReadReq MSHR hits
system.cpu.dcache.ReadReq_mshr_misses::.cpu.data       415558                       # number of ReadReq MSHR misses
system.cpu.dcache.ReadReq_mshr_misses::total       415558                       # number of ReadReq MSHR misses
system.cpu.dcache.ReadReq_mshr_miss_latency::.cpu.data  12949833000                       # number of ReadReq MSHR miss cycles
system.cpu.dcache.ReadReq_mshr_miss_latency::total  12949833000                       # number of ReadReq MSHR miss cycles
system.cpu.dcache.ReadReq_mshr_miss_rate::.cpu.data     0.010111                       # mshr miss rate for ReadReq accesses
system.cpu.dcache.ReadReq_mshr_miss_rate::total     0.010111                       # mshr miss rate for ReadReq accesses
system.cpu.dcache.ReadReq_avg_mshr_miss_latency::.cpu.data 31162.516424                       # average ReadReq mshr miss latency
system.cpu.dcache.ReadReq_avg_mshr_miss_latency::total 31162.516424                       # average ReadReq mshr miss latency
system.cpu.dcache.WriteReq_hits::.cpu.data     10631595                       # number of WriteReq hits
system.cpu.dcache.WriteReq_hits::total       10631595                       # number of WriteReq hits
system.cpu.dcache.WriteReq_misses::.cpu.data       318488                       # number of WriteReq misses
system.cpu.dcache.WriteReq_misses::total       318488                       # number of WriteReq misses
system.cpu.dcache.WriteReq_miss_latency::.cpu.data  17992045000                       # number of WriteReq miss cycles
system.cpu.dcache.WriteReq_miss_latency::total  17992045000                       # number of WriteReq miss cycles
system.cpu.dcache.WriteReq_accesses::.cpu.data     10950083                       # number of WriteReq accesses(hits+misses)
system.cpu.dcache.WriteReq_accesses::total     10950083                       # number of WriteReq accesses(hits+misses)
system.cpu.dcache.WriteReq_miss_rate::.cpu.data     0.029085                       # miss rate for WriteReq accesses
system.cpu.dcache.WriteReq_miss_rate::total     0.029085                       # miss rate for WriteReq accesses
system.cpu.dcache.WriteReq_avg_miss_latency::.cpu.data 56492.065635                       # average WriteReq miss latency
system.cpu.dcache.WriteReq_avg_miss_latency::total 56492.065635                       # average WriteReq miss latency
system.cpu.dcache.WriteReq_mshr_hits::.cpu.data        29226                       # number of WriteReq MSHR hits
system.cpu.dcache.WriteReq_mshr_hits::total        29226                       # number of WriteReq MSHR hits
system.cpu.dcache.WriteReq_mshr_misses::.cpu.data       289262                       # number of WriteReq MSHR misses
system.cpu.dcache.WriteReq_mshr_misses::total       289262                       # number of WriteReq MSHR misses
system.cpu.dcache.WriteReq_mshr_miss_latency::.cpu.data  14675260000                       # number of WriteReq MSHR miss cycles
system.cpu.dcache.WriteReq_mshr_miss_latency::total  14675260000                       # number of WriteReq MSHR miss cycles
system.cpu.dcache.WriteReq_mshr_miss_rate::.cpu.data     0.026416                       # mshr miss rate for WriteReq accesses
system.cpu.dcache.WriteReq_mshr_miss_rate::total     0.026416                       # mshr miss rate for WriteReq accesses
system.cpu.dcache.WriteReq_avg_mshr_miss_latency::.cpu.data 50733.452718                       # average WriteReq mshr miss latency
system.cpu.dcache.WriteReq_avg_mshr_miss_latency::total 50733.452718                       # average WriteReq mshr miss latency
system.cpu.dcache.SoftPFReq_hits::.cpu.data          564                       # number of SoftPFReq hits
system.cpu.dcache.SoftPFReq_hits::total           564                       # number of SoftPFReq hits
system.cpu.dcache.SoftPFReq_misses::.cpu.data         7854                       # number of SoftPFReq misses
system.cpu.dcache.SoftPFReq_misses::total         7854                       # number of SoftPFReq misses
system.cpu.dcache.SoftPFReq_accesses::.cpu.data         8418                       # number of SoftPFReq accesses(hits+misses)
system.cpu.dcache.SoftPFReq_accesses::total         8418                       # number of SoftPFReq accesses(hits+misses)
system.cpu.dcache.SoftPFReq_miss_rate::.cpu.data     0.933001                       # miss rate for SoftPFReq accesses
system.cpu.dcache.SoftPFReq_miss_rate::total     0.933001                       # miss rate for SoftPFReq accesses
system.cpu.dcache.SoftPFReq_mshr_misses::.cpu.data         3955                       # number of SoftPFReq MSHR misses
system.cpu.dcache.SoftPFReq_mshr_misses::total         3955                       # number of SoftPFReq MSHR misses
system.cpu.dcache.SoftPFReq_mshr_miss_latency::.cpu.data    412063000                       # number of SoftPFReq MSHR miss cycles
system.cpu.dcache.SoftPFReq_mshr_miss_latency::total    412063000                       # number of SoftPFReq MSHR miss cycles
system.cpu.dcache.SoftPFReq_mshr_miss_rate::.cpu.data     0.469827                       # mshr miss rate for SoftPFReq accesses
system.cpu.dcache.SoftPFReq_mshr_miss_rate::total     0.469827                       # mshr miss rate for SoftPFReq accesses
system.cpu.dcache.SoftPFReq_avg_mshr_miss_latency::.cpu.data 104187.863464                       # average SoftPFReq mshr miss latency
system.cpu.dcache.SoftPFReq_avg_mshr_miss_latency::total 104187.863464                       # average SoftPFReq mshr miss latency
system.cpu.dcache.LoadLockedReq_hits::.cpu.data           38                       # number of LoadLockedReq hits
system.cpu.dcache.LoadLockedReq_hits::total           38                       # number of LoadLockedReq hits
system.cpu.dcache.LoadLockedReq_accesses::.cpu.data           38                       # number of LoadLockedReq accesses(hits+misses)
system.cpu.dcache.LoadLockedReq_accesses::total           38                       # number of LoadLockedReq accesses(hits+misses)
system.cpu.dcache.StoreCondReq_hits::.cpu.data           38                       # number of StoreCondReq hits
system.cpu.dcache.StoreCondReq_hits::total           38                       # number of StoreCondReq hits
system.cpu.dcache.StoreCondReq_accesses::.cpu.data           38                       # number of StoreCondReq accesses(hits+misses)
system.cpu.dcache.StoreCondReq_accesses::total           38                       # number of StoreCondReq accesses(hits+misses)
system.cpu.dcache.tags.pwrStateResidencyTicks::UNDEFINED 160654868000                       # Cumulative time (in ticks) in various power states
system.cpu.dcache.tags.tagsinuse           506.864963                       # Cycle average of tags in use
system.cpu.dcache.tags.total_refs            52023774                       # Total number of references to valid blocks.
system.cpu.dcache.tags.sampled_refs            708775                       # Sample count of references to valid blocks.
system.cpu.dcache.tags.avg_refs             73.399561                       # Average number of references to valid blocks.
system.cpu.dcache.tags.warmup_cycle            233000                       # Cycle when the warmup percentage was hit.
system.cpu.dcache.tags.occ_blocks::.cpu.data   506.864963                       # Average occupied blocks per requestor
system.cpu.dcache.tags.occ_percent::.cpu.data     0.989971                       # Average percentage of cache occupancy
system.cpu.dcache.tags.occ_percent::total     0.989971                       # Average percentage of cache occupancy
system.cpu.dcache.tags.occ_task_id_blocks::1024          512                       # Occupied blocks per task id
system.cpu.dcache.tags.age_task_id_blocks_1024::0          149                       # Occupied blocks per task id
system.cpu.dcache.tags.age_task_id_blocks_1024::1          202                       # Occupied blocks per task id
system.cpu.dcache.tags.age_task_id_blocks_1024::2          159                       # Occupied blocks per task id
system.cpu.dcache.tags.age_task_id_blocks_1024::3            2                       # Occupied blocks per task id
system.cpu.dcache.tags.occ_task_id_percent::1024            1                       # Percentage of cache occupancy per task id
system.cpu.dcache.tags.tag_accesses         104827823                       # Number of tag accesses
system.cpu.dcache.tags.data_accesses        104827823                       # Number of data accesses
system.cpu.itb.walker.pwrStateResidencyTicks::UNDEFINED 160654868000                       # Cumulative time (in ticks) in various power states
system.cpu.itb.stage2_mmu.stage2_tlb.walker.pwrStateResidencyTicks::UNDEFINED 160654868000                       # Cumulative time (in ticks) in various power states

---------- End Simulation Statistics   ----------
