
---------- Begin Simulation Statistics ----------
final_tick                               113655171000                       # Number of ticks from beginning of simulation (restored from checkpoints and never reset)
host_inst_rate                                 556790                       # Simulator instruction rate (inst/s)
host_mem_usage                                 703936                       # Number of bytes of host memory used
host_op_rate                                   609305                       # Simulator op (including micro ops) rate (op/s)
host_seconds                                   179.60                       # Real time elapsed on the host
host_tick_rate                              632819687                       # Simulator tick rate (ticks/s)
sim_freq                                 1000000000000                       # Frequency of simulated ticks
sim_insts                                   100000000                       # Number of instructions simulated
sim_ops                                     109431930                       # Number of ops (including micro ops) simulated
sim_seconds                                  0.113655                       # Number of seconds simulated
sim_ticks                                113655171000                       # Number of ticks simulated
system.cpu.branchPred.BTBCorrect                    0                       # Number of correct BTB predictions (this stat may not work properly.
system.cpu.branchPred.BTBHitPct             87.600077                       # BTB Hit Percentage
system.cpu.branchPred.BTBHits                 8747621                       # Number of BTB hits
system.cpu.branchPred.BTBLookups              9985860                       # Number of BTB lookups
system.cpu.branchPred.RASInCorrect                348                       # Number of incorrect RAS predictions.
system.cpu.branchPred.condIncorrect            155024                       # Number of conditional branches incorrect
system.cpu.branchPred.condPredicted          16514415                       # Number of conditional branches predicted
system.cpu.branchPred.indirectHits             300026                       # Number of indirect target hits.
system.cpu.branchPred.indirectLookups          540254                       # Number of indirect predictor lookups.
system.cpu.branchPred.indirectMisses           240228                       # Number of indirect misses.
system.cpu.branchPred.lookups                20621440                       # Number of BP lookups
system.cpu.branchPred.usedRAS                 1050690                       # Number of times the RAS was used to get a target.
system.cpu.branchPredindirectMispredicted         1210                       # Number of mispredicted indirect branches.
system.cpu.committedInsts                   100000000                       # Number of instructions committed
system.cpu.committedOps                     109431930                       # Number of ops (including micro ops) committed
system.cpu.cpi                               1.136552                       # CPI: cycles per instruction
system.cpu.discardedOps                        731943                       # Number of ops (including micro ops) which were discarded before commit
system.cpu.dtb.accesses                             0                       # DTB accesses
system.cpu.dtb.align_faults                         0                       # Number of TLB faults due to alignment restrictions
system.cpu.dtb.domain_faults                        0                       # Number of TLB faults due to domain restrictions
system.cpu.dtb.flush_entries                        0                       # Number of entries that have been flushed from TLB
system.cpu.dtb.flush_tlb                            0                       # Number of times complete TLB was flushed
system.cpu.dtb.flush_tlb_asid                       0                       # Number of times TLB was flushed by ASID
system.cpu.dtb.flush_tlb_mva                        0                       # Number of times TLB was flushed by MVA
system.cpu.dtb.flush_tlb_mva_asid                   0                       # Number of times TLB was flushed by MVA & ASID
system.cpu.dtb.hits                                 0                       # DTB hits
system.cpu.dtb.inst_accesses                        0                       # ITB inst accesses
system.cpu.dtb.inst_hits                            0                       # ITB inst hits
system.cpu.dtb.inst_misses                          0                       # ITB inst misses
system.cpu.dtb.misses                               0                       # DTB misses
system.cpu.dtb.perms_faults                         0                       # Number of TLB faults due to permissions restrictions
system.cpu.dtb.prefetch_faults                      0                       # Number of TLB faults due to prefetch
system.cpu.dtb.read_accesses                        0                       # DTB read accesses
system.cpu.dtb.read_hits                            0                       # DTB read hits
system.cpu.dtb.read_misses                          0                       # DTB read misses
system.cpu.dtb.stage2_mmu.stage2_tlb.accesses            0                       # DTB accesses
system.cpu.dtb.stage2_mmu.stage2_tlb.align_faults            0                       # Number of TLB faults due to alignment restrictions
system.cpu.dtb.stage2_mmu.stage2_tlb.domain_faults            0                       # Number of TLB faults due to domain restrictions
system.cpu.dtb.stage2_mmu.stage2_tlb.flush_entries            0                       # Number of entries that have been flushed from TLB
system.cpu.dtb.stage2_mmu.stage2_tlb.flush_tlb            0                       # Number of times complete TLB was flushed
system.cpu.dtb.stage2_mmu.stage2_tlb.flush_tlb_asid            0                       # Number of times TLB was flushed by ASID
system.cpu.dtb.stage2_mmu.stage2_tlb.flush_tlb_mva            0                       # Number of times TLB was flushed by MVA
system.cpu.dtb.stage2_mmu.stage2_tlb.flush_tlb_mva_asid            0                       # Number of times TLB was flushed by MVA & ASID
system.cpu.dtb.stage2_mmu.stage2_tlb.hits            0                       # DTB hits
system.cpu.dtb.stage2_mmu.stage2_tlb.inst_accesses            0                       # ITB inst accesses
system.cpu.dtb.stage2_mmu.stage2_tlb.inst_hits            0                       # ITB inst hits
system.cpu.dtb.stage2_mmu.stage2_tlb.inst_misses            0                       # ITB inst misses
system.cpu.dtb.stage2_mmu.stage2_tlb.misses            0                       # DTB misses
system.cpu.dtb.stage2_mmu.stage2_tlb.perms_faults            0                       # Number of TLB faults due to permissions restrictions
system.cpu.dtb.stage2_mmu.stage2_tlb.prefetch_faults            0                       # Number of TLB faults due to prefetch
system.cpu.dtb.stage2_mmu.stage2_tlb.read_accesses            0                       # DTB read accesses
system.cpu.dtb.stage2_mmu.stage2_tlb.read_hits            0                       # DTB read hits
system.cpu.dtb.stage2_mmu.stage2_tlb.read_misses            0                       # DTB read misses
system.cpu.dtb.stage2_mmu.stage2_tlb.walker.walkRequestOrigin_Requested::Data            0                       # Table walker requests started/completed, data/inst
system.cpu.dtb.stage2_mmu.stage2_tlb.walker.walkRequestOrigin_Requested::Inst            0                       # Table walker requests started/completed, data/inst
system.cpu.dtb.stage2_mmu.stage2_tlb.walker.walkRequestOrigin_Requested::total            0                       # Table walker requests started/completed, data/inst
system.cpu.dtb.stage2_mmu.stage2_tlb.walker.walkRequestOrigin_Completed::Data            0                       # Table walker requests started/completed, data/inst
system.cpu.dtb.stage2_mmu.stage2_tlb.walker.walkRequestOrigin_Completed::Inst            0                       # Table walker requests started/completed, data/inst
system.cpu.dtb.stage2_mmu.stage2_tlb.walker.walkRequestOrigin_Completed::total            0                       # Table walker requests started/completed, data/inst
system.cpu.dtb.stage2_mmu.stage2_tlb.walker.walkRequestOrigin::total            0                       # Table walker requests started/completed, data/inst
system.cpu.dtb.stage2_mmu.stage2_tlb.walker.walks            0                       # Table walker walks requested
system.cpu.dtb.stage2_mmu.stage2_tlb.write_accesses            0                       # DTB write accesses
system.cpu.dtb.stage2_mmu.stage2_tlb.write_hits            0                       # DTB write hits
system.cpu.dtb.stage2_mmu.stage2_tlb.write_misses            0                       # DTB write misses
system.cpu.dtb.walker.walkRequestOrigin_Requested::Data            0                       # Table walker requests started/completed, data/inst
system.cpu.dtb.walker.walkRequestOrigin_Requested::Inst            0                       # Table walker requests started/completed, data/inst
system.cpu.dtb.walker.walkRequestOrigin_Requested::total            0                       # Table walker requests started/completed, data/inst
system.cpu.dtb.walker.walkRequestOrigin_Completed::Data            0                       # Table walker requests started/completed, data/inst
system.cpu.dtb.walker.walkRequestOrigin_Completed::Inst            0                       # Table walker requests started/completed, data/inst
system.cpu.dtb.walker.walkRequestOrigin_Completed::total            0                       # Table walker requests started/completed, data/inst
system.cpu.dtb.walker.walkRequestOrigin::total            0                       # Table walker requests started/completed, data/inst
system.cpu.dtb.walker.walks                         0                       # Table walker walks requested
system.cpu.dtb.write_accesses                       0                       # DTB write accesses
system.cpu.dtb.write_hits                           0                       # DTB write hits
system.cpu.dtb.write_misses                         0                       # DTB write misses
system.cpu.fetch2.amo_instructions                  0                       # Number of memory atomic instructions successfully decoded
system.cpu.fetch2.fp_instructions                   0                       # Number of floating point instructions successfully decoded
system.cpu.fetch2.int_instructions           49946489                       # Number of integer instructions successfully decoded
system.cpu.fetch2.load_instructions          17195275                       # Number of memory load instructions successfully decoded
system.cpu.fetch2.store_instructions         10035060                       # Number of memory store instructions successfully decoded
system.cpu.fetch2.vec_instructions                  0                       # Number of SIMD instructions successfully decoded
system.cpu.idleCycles                         3088866                       # Total number of cycles that the object has spent stopped
system.cpu.ipc                               0.879854                       # IPC: instructions per cycle
system.cpu.itb.accesses                             0                       # DTB accesses
system.cpu.itb.align_faults                         0                       # Number of TLB faults due to alignment restrictions
system.cpu.itb.domain_faults                        0                       # Number of TLB faults due to domain restrictions
system.cpu.itb.flush_entries                        0                       # Number of entries that have been flushed from TLB
system.cpu.itb.flush_tlb                            0                       # Number of times complete TLB was flushed
system.cpu.itb.flush_tlb_asid                       0                       # Number of times TLB was flushed by ASID
system.cpu.itb.flush_tlb_mva                        0                       # Number of times TLB was flushed by MVA
system.cpu.itb.flush_tlb_mva_asid                   0                       # Number of times TLB was flushed by MVA & ASID
system.cpu.itb.hits                                 0                       # DTB hits
system.cpu.itb.inst_accesses                        0                       # ITB inst accesses
system.cpu.itb.inst_hits                            0                       # ITB inst hits
system.cpu.itb.inst_misses                          0                       # ITB inst misses
system.cpu.itb.misses                               0                       # DTB misses
system.cpu.itb.perms_faults                         0                       # Number of TLB faults due to permissions restrictions
system.cpu.itb.prefetch_faults                      0                       # Number of TLB faults due to prefetch
system.cpu.itb.read_accesses                        0                       # DTB read accesses
system.cpu.itb.read_hits                            0                       # DTB read hits
system.cpu.itb.read_misses                          0                       # DTB read misses
system.cpu.itb.stage2_mmu.stage2_tlb.accesses            0                       # DTB accesses
system.cpu.itb.stage2_mmu.stage2_tlb.align_faults            0                       # Number of TLB faults due to alignment restrictions
system.cpu.itb.stage2_mmu.stage2_tlb.domain_faults            0                       # Number of TLB faults due to domain restrictions
system.cpu.itb.stage2_mmu.stage2_tlb.flush_entries            0                       # Number of entries that have been flushed from TLB
system.cpu.itb.stage2_mmu.stage2_tlb.flush_tlb            0                       # Number of times complete TLB was flushed
system.cpu.itb.stage2_mmu.stage2_tlb.flush_tlb_asid            0                       # Number of times TLB was flushed by ASID
system.cpu.itb.stage2_mmu.stage2_tlb.flush_tlb_mva            0                       # Number of times TLB was flushed by MVA
system.cpu.itb.stage2_mmu.stage2_tlb.flush_tlb_mva_asid            0                       # Number of times TLB was flushed by MVA & ASID
system.cpu.itb.stage2_mmu.stage2_tlb.hits            0                       # DTB hits
system.cpu.itb.stage2_mmu.stage2_tlb.inst_accesses            0                       # ITB inst accesses
system.cpu.itb.stage2_mmu.stage2_tlb.inst_hits            0                       # ITB inst hits
system.cpu.itb.stage2_mmu.stage2_tlb.inst_misses            0                       # ITB inst misses
system.cpu.itb.stage2_mmu.stage2_tlb.misses            0                       # DTB misses
system.cpu.itb.stage2_mmu.stage2_tlb.perms_faults            0                       # Number of TLB faults due to permissions restrictions
system.cpu.itb.stage2_mmu.stage2_tlb.prefetch_faults            0                       # Number of TLB faults due to prefetch
system.cpu.itb.stage2_mmu.stage2_tlb.read_accesses            0                       # DTB read accesses
system.cpu.itb.stage2_mmu.stage2_tlb.read_hits            0                       # DTB read hits
system.cpu.itb.stage2_mmu.stage2_tlb.read_misses            0                       # DTB read misses
system.cpu.itb.stage2_mmu.stage2_tlb.walker.walkRequestOrigin_Requested::Data            0                       # Table walker requests started/completed, data/inst
system.cpu.itb.stage2_mmu.stage2_tlb.walker.walkRequestOrigin_Requested::Inst            0                       # Table walker requests started/completed, data/inst
system.cpu.itb.stage2_mmu.stage2_tlb.walker.walkRequestOrigin_Requested::total            0                       # Table walker requests started/completed, data/inst
system.cpu.itb.stage2_mmu.stage2_tlb.walker.walkRequestOrigin_Completed::Data            0                       # Table walker requests started/completed, data/inst
system.cpu.itb.stage2_mmu.stage2_tlb.walker.walkRequestOrigin_Completed::Inst            0                       # Table walker requests started/completed, data/inst
system.cpu.itb.stage2_mmu.stage2_tlb.walker.walkRequestOrigin_Completed::total            0                       # Table walker requests started/completed, data/inst
system.cpu.itb.stage2_mmu.stage2_tlb.walker.walkRequestOrigin::total            0                       # Table walker requests started/completed, data/inst
system.cpu.itb.stage2_mmu.stage2_tlb.walker.walks            0                       # Table walker walks requested
system.cpu.itb.stage2_mmu.stage2_tlb.write_accesses            0                       # DTB write accesses
system.cpu.itb.stage2_mmu.stage2_tlb.write_hits            0                       # DTB write hits
system.cpu.itb.stage2_mmu.stage2_tlb.write_misses            0                       # DTB write misses
system.cpu.itb.walker.walkRequestOrigin_Requested::Data            0                       # Table walker requests started/completed, data/inst
system.cpu.itb.walker.walkRequestOrigin_Requested::Inst            0                       # Table walker requests started/completed, data/inst
system.cpu.itb.walker.walkRequestOrigin_Requested::total            0                       # Table walker requests started/completed, data/inst
system.cpu.itb.walker.walkRequestOrigin_Completed::Data            0                       # Table walker requests started/completed, data/inst
system.cpu.itb.walker.walkRequestOrigin_Completed::Inst            0                       # Table walker requests started/completed, data/inst
system.cpu.itb.walker.walkRequestOrigin_Completed::total            0                       # Table walker requests started/completed, data/inst
system.cpu.itb.walker.walkRequestOrigin::total            0                       # Table walker requests started/completed, data/inst
system.cpu.itb.walker.walks                         0                       # Table walker walks requested
system.cpu.itb.write_accesses                       0                       # DTB write accesses
system.cpu.itb.write_hits                           0                       # DTB write hits
system.cpu.itb.write_misses                         0                       # DTB write misses
system.cpu.numCycles                        113655171                       # number of cpu cycles simulated
system.cpu.numFetchSuspends                         0                       # Number of times Execute suspended instruction fetching
system.cpu.numWorkItemsCompleted                    0                       # number of work items this cpu completed
system.cpu.numWorkItemsStarted                      0                       # number of work items this cpu started
system.cpu.op_class_0::No_OpClass                   0      0.00%      0.00% # Class of committed instruction
system.cpu.op_class_0::IntAlu                72955325     66.67%     66.67% # Class of committed instruction
system.cpu.op_class_0::IntMult                 568365      0.52%     67.19% # Class of committed instruction
system.cpu.op_class_0::IntDiv                       0      0.00%     67.19% # Class of committed instruction
system.cpu.op_class_0::FloatAdd                     0      0.00%     67.19% # Class of committed instruction
system.cpu.op_class_0::FloatCmp                     0      0.00%     67.19% # Class of committed instruction
system.cpu.op_class_0::FloatCvt                     0      0.00%     67.19% # Class of committed instruction
system.cpu.op_class_0::FloatMult                    0      0.00%     67.19% # Class of committed instruction
system.cpu.op_class_0::FloatMultAcc                 0      0.00%     67.19% # Class of committed instruction
system.cpu.op_class_0::FloatDiv                     0      0.00%     67.19% # Class of committed instruction
system.cpu.op_class_0::FloatMisc                    0      0.00%     67.19% # Class of committed instruction
system.cpu.op_class_0::FloatSqrt                    0      0.00%     67.19% # Class of committed instruction
system.cpu.op_class_0::SimdAdd                 241252      0.22%     67.41% # Class of committed instruction
system.cpu.op_class_0::SimdAddAcc                   0      0.00%     67.41% # Class of committed instruction
system.cpu.op_class_0::SimdAlu                 154720      0.14%     67.55% # Class of committed instruction
system.cpu.op_class_0::SimdCmp                 120626      0.11%     67.66% # Class of committed instruction
system.cpu.op_class_0::SimdCvt                      0      0.00%     67.66% # Class of committed instruction
system.cpu.op_class_0::SimdMisc                 44544      0.04%     67.70% # Class of committed instruction
system.cpu.op_class_0::SimdMult                     0      0.00%     67.70% # Class of committed instruction
system.cpu.op_class_0::SimdMultAcc                  0      0.00%     67.70% # Class of committed instruction
system.cpu.op_class_0::SimdShift                    0      0.00%     67.70% # Class of committed instruction
system.cpu.op_class_0::SimdShiftAcc                 0      0.00%     67.70% # Class of committed instruction
system.cpu.op_class_0::SimdDiv                      0      0.00%     67.70% # Class of committed instruction
system.cpu.op_class_0::SimdSqrt                     0      0.00%     67.70% # Class of committed instruction
system.cpu.op_class_0::SimdFloatAdd                 0      0.00%     67.70% # Class of committed instruction
system.cpu.op_class_0::SimdFloatAlu                 0      0.00%     67.70% # Class of committed instruction
system.cpu.op_class_0::SimdFloatCmp                 0      0.00%     67.70% # Class of committed instruction
system.cpu.op_class_0::SimdFloatCvt                 0      0.00%     67.70% # Class of committed instruction
system.cpu.op_class_0::SimdFloatDiv                 0      0.00%     67.70% # Class of committed instruction
system.cpu.op_class_0::SimdFloatMisc           166465      0.15%     67.85% # Class of committed instruction
system.cpu.op_class_0::SimdFloatMult                0      0.00%     67.85% # Class of committed instruction
system.cpu.op_class_0::SimdFloatMultAcc             0      0.00%     67.85% # Class of committed instruction
system.cpu.op_class_0::SimdFloatSqrt                0      0.00%     67.85% # Class of committed instruction
system.cpu.op_class_0::SimdReduceAdd                0      0.00%     67.85% # Class of committed instruction
system.cpu.op_class_0::SimdReduceAlu                0      0.00%     67.85% # Class of committed instruction
system.cpu.op_class_0::SimdReduceCmp                0      0.00%     67.85% # Class of committed instruction
system.cpu.op_class_0::SimdFloatReduceAdd            0      0.00%     67.85% # Class of committed instruction
system.cpu.op_class_0::SimdFloatReduceCmp            0      0.00%     67.85% # Class of committed instruction
system.cpu.op_class_0::SimdAes                      0      0.00%     67.85% # Class of committed instruction
system.cpu.op_class_0::SimdAesMix                   0      0.00%     67.85% # Class of committed instruction
system.cpu.op_class_0::SimdSha1Hash                 0      0.00%     67.85% # Class of committed instruction
system.cpu.op_class_0::SimdSha1Hash2                0      0.00%     67.85% # Class of committed instruction
system.cpu.op_class_0::SimdSha256Hash               0      0.00%     67.85% # Class of committed instruction
system.cpu.op_class_0::SimdSha256Hash2              0      0.00%     67.85% # Class of committed instruction
system.cpu.op_class_0::SimdShaSigma2                0      0.00%     67.85% # Class of committed instruction
system.cpu.op_class_0::SimdShaSigma3                0      0.00%     67.85% # Class of committed instruction
system.cpu.op_class_0::SimdPredAlu                  0      0.00%     67.85% # Class of committed instruction
system.cpu.op_class_0::MemRead               20646456     18.87%     86.72% # Class of committed instruction
system.cpu.op_class_0::MemWrite              14534177     13.28%    100.00% # Class of committed instruction
system.cpu.op_class_0::FloatMemRead                 0      0.00%    100.00% # Class of committed instruction
system.cpu.op_class_0::FloatMemWrite                0      0.00%    100.00% # Class of committed instruction
system.cpu.op_class_0::IprAccess                    0      0.00%    100.00% # Class of committed instruction
system.cpu.op_class_0::InstPrefetch                 0      0.00%    100.00% # Class of committed instruction
system.cpu.op_class_0::total                109431930                       # Class of committed instruction
system.cpu.tickCycles                       110566305                       # Number of cycles that the object actually ticked
system.cpu.workload.numSyscalls                    86                       # Number of system calls
system.membus.snoop_filter.hit_multi_requests            0                       # Number of requests hitting in the snoop filter with multiple (>1) holders of the requested data.
system.membus.snoop_filter.hit_multi_snoops            0                       # Number of snoops hitting in the snoop filter with multiple (>1) holders of the requested data.
system.membus.snoop_filter.hit_single_requests         6591                       # Number of requests hitting in the snoop filter with a single holder of the requested data.
system.membus.snoop_filter.hit_single_snoops            0                       # Number of snoops hitting in the snoop filter with a single holder of the requested data.
system.membus.snoop_filter.tot_requests         46454                       # Total number of requests made to the snoop filter.
system.membus.snoop_filter.tot_snoops               0                       # Total number of snoops made to the snoop filter.
system.tol2bus.snoop_filter.hit_multi_requests           23                       # Number of requests hitting in the snoop filter with multiple (>1) holders of the requested data.
system.tol2bus.snoop_filter.hit_multi_snoops            2                       # Number of snoops hitting in the snoop filter with multiple (>1) holders of the requested data.
system.tol2bus.snoop_filter.hit_single_requests        54243                       # Number of requests hitting in the snoop filter with a single holder of the requested data.
system.tol2bus.snoop_filter.hit_single_snoops          508                       # Number of snoops hitting in the snoop filter with a single holder of the requested data.
system.tol2bus.snoop_filter.tot_requests       109998                       # Total number of requests made to the snoop filter.
system.tol2bus.snoop_filter.tot_snoops            510                       # Total number of snoops made to the snoop filter.
system.membus.pwrStateResidencyTicks::UNDEFINED 113655171000                       # Cumulative time (in ticks) in various power states
system.membus.trans_dist::ReadResp               1052                       # Transaction distribution
system.membus.trans_dist::WritebackDirty         6506                       # Transaction distribution
system.membus.trans_dist::CleanEvict               84                       # Transaction distribution
system.membus.trans_dist::ReadExReq             38812                       # Transaction distribution
system.membus.trans_dist::ReadExResp            38812                       # Transaction distribution
system.membus.trans_dist::ReadSharedReq          1052                       # Transaction distribution
system.membus.pkt_count_system.l2.mem_side::system.mem_ctrls.port        86318                       # Packet count per connected master and slave (bytes)
system.membus.pkt_count::total                  86318                       # Packet count per connected master and slave (bytes)
system.membus.pkt_size_system.l2.mem_side::system.mem_ctrls.port      2967680                       # Cumulative packet size per connected master and slave (bytes)
system.membus.pkt_size::total                 2967680                       # Cumulative packet size per connected master and slave (bytes)
system.membus.snoops                                0                       # Total snoops (count)
system.membus.snoopTraffic                          0                       # Total snoop traffic (bytes)
system.membus.snoop_fanout::samples             39864                       # Request fanout histogram
system.membus.snoop_fanout::mean                    0                       # Request fanout histogram
system.membus.snoop_fanout::stdev                   0                       # Request fanout histogram
system.membus.snoop_fanout::underflows              0      0.00%      0.00% # Request fanout histogram
system.membus.snoop_fanout::0                   39864    100.00%    100.00% # Request fanout histogram
system.membus.snoop_fanout::1                       0      0.00%    100.00% # Request fanout histogram
system.membus.snoop_fanout::overflows               0      0.00%    100.00% # Request fanout histogram
system.membus.snoop_fanout::min_value               0                       # Request fanout histogram
system.membus.snoop_fanout::max_value               0                       # Request fanout histogram
system.membus.snoop_fanout::total               39864                       # Request fanout histogram
system.membus.respLayer1.occupancy          214260500                       # Layer occupancy (ticks)
system.membus.respLayer1.utilization              0.2                       # Layer utilization (%)
system.membus.reqLayer0.occupancy            72478000                       # Layer occupancy (ticks)
system.membus.reqLayer0.utilization               0.1                       # Layer utilization (%)
system.tol2bus.pwrStateResidencyTicks::UNDEFINED 113655171000                       # Cumulative time (in ticks) in various power states
system.tol2bus.trans_dist::ReadResp             16823                       # Transaction distribution
system.tol2bus.trans_dist::WritebackDirty        56922                       # Transaction distribution
system.tol2bus.trans_dist::WritebackClean           32                       # Transaction distribution
system.tol2bus.trans_dist::CleanEvict            4383                       # Transaction distribution
system.tol2bus.trans_dist::ReadExReq            38936                       # Transaction distribution
system.tol2bus.trans_dist::ReadExResp           38936                       # Transaction distribution
system.tol2bus.trans_dist::ReadCleanReq           528                       # Transaction distribution
system.tol2bus.trans_dist::ReadSharedReq        16295                       # Transaction distribution
system.tol2bus.pkt_count_system.cpu.icache.mem_side::system.l2.cpu_side         1088                       # Packet count per connected master and slave (bytes)
system.tol2bus.pkt_count_system.cpu.dcache.mem_side::system.l2.cpu_side       164669                       # Packet count per connected master and slave (bytes)
system.tol2bus.pkt_count::total                165757                       # Packet count per connected master and slave (bytes)
system.tol2bus.pkt_size_system.cpu.icache.mem_side::system.l2.cpu_side        35840                       # Cumulative packet size per connected master and slave (bytes)
system.tol2bus.pkt_size_system.cpu.dcache.mem_side::system.l2.cpu_side      6761408                       # Cumulative packet size per connected master and slave (bytes)
system.tol2bus.pkt_size::total                6797248                       # Cumulative packet size per connected master and slave (bytes)
system.tol2bus.snoops                            7098                       # Total snoops (count)
system.tol2bus.snoopTraffic                    416384                       # Total snoop traffic (bytes)
system.tol2bus.snoop_fanout::samples            62857                       # Request fanout histogram
system.tol2bus.snoop_fanout::mean            0.008575                       # Request fanout histogram
system.tol2bus.snoop_fanout::stdev           0.092549                       # Request fanout histogram
system.tol2bus.snoop_fanout::underflows             0      0.00%      0.00% # Request fanout histogram
system.tol2bus.snoop_fanout::0                  62320     99.15%     99.15% # Request fanout histogram
system.tol2bus.snoop_fanout::1                    535      0.85%    100.00% # Request fanout histogram
system.tol2bus.snoop_fanout::2                      2      0.00%    100.00% # Request fanout histogram
system.tol2bus.snoop_fanout::overflows              0      0.00%    100.00% # Request fanout histogram
system.tol2bus.snoop_fanout::min_value              0                       # Request fanout histogram
system.tol2bus.snoop_fanout::max_value              2                       # Request fanout histogram
system.tol2bus.snoop_fanout::total              62857                       # Request fanout histogram
system.tol2bus.reqLayer0.occupancy          210894000                       # Layer occupancy (ticks)
system.tol2bus.reqLayer0.utilization              0.2                       # Layer utilization (%)
system.tol2bus.respLayer1.occupancy         165697995                       # Layer occupancy (ticks)
system.tol2bus.respLayer1.utilization             0.1                       # Layer utilization (%)
system.tol2bus.respLayer0.occupancy           1584999                       # Layer occupancy (ticks)
system.tol2bus.respLayer0.utilization             0.0                       # Layer utilization (%)
system.voltage_domain.voltage                       1                       # Voltage in Volts
system.clk_domain.clock                          1000                       # Clock period in ticks
system.l2.pwrStateResidencyTicks::UNDEFINED 113655171000                       # Cumulative time (in ticks) in various power states
system.l2.demand_hits::.cpu.inst                   15                       # number of demand (read+write) hits
system.l2.demand_hits::.cpu.data                15874                       # number of demand (read+write) hits
system.l2.demand_hits::total                    15889                       # number of demand (read+write) hits
system.l2.overall_hits::.cpu.inst                  15                       # number of overall hits
system.l2.overall_hits::.cpu.data               15874                       # number of overall hits
system.l2.overall_hits::total                   15889                       # number of overall hits
system.l2.demand_misses::.cpu.inst                513                       # number of demand (read+write) misses
system.l2.demand_misses::.cpu.data              39357                       # number of demand (read+write) misses
system.l2.demand_misses::total                  39870                       # number of demand (read+write) misses
system.l2.overall_misses::.cpu.inst               513                       # number of overall misses
system.l2.overall_misses::.cpu.data             39357                       # number of overall misses
system.l2.overall_misses::total                 39870                       # number of overall misses
system.l2.demand_miss_latency::.cpu.inst     50018000                       # number of demand (read+write) miss cycles
system.l2.demand_miss_latency::.cpu.data   4321091000                       # number of demand (read+write) miss cycles
system.l2.demand_miss_latency::total       4371109000                       # number of demand (read+write) miss cycles
system.l2.overall_miss_latency::.cpu.inst     50018000                       # number of overall miss cycles
system.l2.overall_miss_latency::.cpu.data   4321091000                       # number of overall miss cycles
system.l2.overall_miss_latency::total      4371109000                       # number of overall miss cycles
system.l2.demand_accesses::.cpu.inst              528                       # number of demand (read+write) accesses
system.l2.demand_accesses::.cpu.data            55231                       # number of demand (read+write) accesses
system.l2.demand_accesses::total                55759                       # number of demand (read+write) accesses
system.l2.overall_accesses::.cpu.inst             528                       # number of overall (read+write) accesses
system.l2.overall_accesses::.cpu.data           55231                       # number of overall (read+write) accesses
system.l2.overall_accesses::total               55759                       # number of overall (read+write) accesses
system.l2.demand_miss_rate::.cpu.inst        0.971591                       # miss rate for demand accesses
system.l2.demand_miss_rate::.cpu.data        0.712589                       # miss rate for demand accesses
system.l2.demand_miss_rate::total            0.715042                       # miss rate for demand accesses
system.l2.overall_miss_rate::.cpu.inst       0.971591                       # miss rate for overall accesses
system.l2.overall_miss_rate::.cpu.data       0.712589                       # miss rate for overall accesses
system.l2.overall_miss_rate::total           0.715042                       # miss rate for overall accesses
system.l2.demand_avg_miss_latency::.cpu.inst 97500.974659                       # average overall miss latency
system.l2.demand_avg_miss_latency::.cpu.data 109792.184364                       # average overall miss latency
system.l2.demand_avg_miss_latency::total 109634.035616                       # average overall miss latency
system.l2.overall_avg_miss_latency::.cpu.inst 97500.974659                       # average overall miss latency
system.l2.overall_avg_miss_latency::.cpu.data 109792.184364                       # average overall miss latency
system.l2.overall_avg_miss_latency::total 109634.035616                       # average overall miss latency
system.l2.blocked_cycles::no_mshrs                  0                       # number of cycles access was blocked
system.l2.blocked_cycles::no_targets                0                       # number of cycles access was blocked
system.l2.blocked::no_mshrs                         0                       # number of cycles access was blocked
system.l2.blocked::no_targets                       0                       # number of cycles access was blocked
system.l2.avg_blocked_cycles::no_mshrs            nan                       # average number of cycles each access was blocked
system.l2.avg_blocked_cycles::no_targets          nan                       # average number of cycles each access was blocked
system.l2.writebacks::.writebacks                6506                       # number of writebacks
system.l2.writebacks::total                      6506                       # number of writebacks
system.l2.demand_mshr_hits::.cpu.inst               1                       # number of demand (read+write) MSHR hits
system.l2.demand_mshr_hits::.cpu.data               5                       # number of demand (read+write) MSHR hits
system.l2.demand_mshr_hits::total                   6                       # number of demand (read+write) MSHR hits
system.l2.overall_mshr_hits::.cpu.inst              1                       # number of overall MSHR hits
system.l2.overall_mshr_hits::.cpu.data              5                       # number of overall MSHR hits
system.l2.overall_mshr_hits::total                  6                       # number of overall MSHR hits
system.l2.demand_mshr_misses::.cpu.inst           512                       # number of demand (read+write) MSHR misses
system.l2.demand_mshr_misses::.cpu.data         39352                       # number of demand (read+write) MSHR misses
system.l2.demand_mshr_misses::total             39864                       # number of demand (read+write) MSHR misses
system.l2.overall_mshr_misses::.cpu.inst          512                       # number of overall MSHR misses
system.l2.overall_mshr_misses::.cpu.data        39352                       # number of overall MSHR misses
system.l2.overall_mshr_misses::total            39864                       # number of overall MSHR misses
system.l2.demand_mshr_miss_latency::.cpu.inst     39698000                       # number of demand (read+write) MSHR miss cycles
system.l2.demand_mshr_miss_latency::.cpu.data   3533643000                       # number of demand (read+write) MSHR miss cycles
system.l2.demand_mshr_miss_latency::total   3573341000                       # number of demand (read+write) MSHR miss cycles
system.l2.overall_mshr_miss_latency::.cpu.inst     39698000                       # number of overall MSHR miss cycles
system.l2.overall_mshr_miss_latency::.cpu.data   3533643000                       # number of overall MSHR miss cycles
system.l2.overall_mshr_miss_latency::total   3573341000                       # number of overall MSHR miss cycles
system.l2.demand_mshr_miss_rate::.cpu.inst     0.969697                       # mshr miss rate for demand accesses
system.l2.demand_mshr_miss_rate::.cpu.data     0.712498                       # mshr miss rate for demand accesses
system.l2.demand_mshr_miss_rate::total       0.714934                       # mshr miss rate for demand accesses
system.l2.overall_mshr_miss_rate::.cpu.inst     0.969697                       # mshr miss rate for overall accesses
system.l2.overall_mshr_miss_rate::.cpu.data     0.712498                       # mshr miss rate for overall accesses
system.l2.overall_mshr_miss_rate::total      0.714934                       # mshr miss rate for overall accesses
system.l2.demand_avg_mshr_miss_latency::.cpu.inst 77535.156250                       # average overall mshr miss latency
system.l2.demand_avg_mshr_miss_latency::.cpu.data 89795.766416                       # average overall mshr miss latency
system.l2.demand_avg_mshr_miss_latency::total 89638.295204                       # average overall mshr miss latency
system.l2.overall_avg_mshr_miss_latency::.cpu.inst 77535.156250                       # average overall mshr miss latency
system.l2.overall_avg_mshr_miss_latency::.cpu.data 89795.766416                       # average overall mshr miss latency
system.l2.overall_avg_mshr_miss_latency::total 89638.295204                       # average overall mshr miss latency
system.l2.replacements                           7098                       # number of replacements
system.l2.WritebackDirty_hits::.writebacks        50416                       # number of WritebackDirty hits
system.l2.WritebackDirty_hits::total            50416                       # number of WritebackDirty hits
system.l2.WritebackDirty_accesses::.writebacks        50416                       # number of WritebackDirty accesses(hits+misses)
system.l2.WritebackDirty_accesses::total        50416                       # number of WritebackDirty accesses(hits+misses)
system.l2.WritebackClean_hits::.writebacks           30                       # number of WritebackClean hits
system.l2.WritebackClean_hits::total               30                       # number of WritebackClean hits
system.l2.WritebackClean_accesses::.writebacks           30                       # number of WritebackClean accesses(hits+misses)
system.l2.WritebackClean_accesses::total           30                       # number of WritebackClean accesses(hits+misses)
system.l2.CleanEvict_mshr_misses::.writebacks            2                       # number of CleanEvict MSHR misses
system.l2.CleanEvict_mshr_misses::total             2                       # number of CleanEvict MSHR misses
system.l2.CleanEvict_mshr_miss_rate::.writebacks          inf                       # mshr miss rate for CleanEvict accesses
system.l2.CleanEvict_mshr_miss_rate::total          inf                       # mshr miss rate for CleanEvict accesses
system.l2.ReadExReq_hits::.cpu.data               124                       # number of ReadExReq hits
system.l2.ReadExReq_hits::total                   124                       # number of ReadExReq hits
system.l2.ReadExReq_misses::.cpu.data           38812                       # number of ReadExReq misses
system.l2.ReadExReq_misses::total               38812                       # number of ReadExReq misses
system.l2.ReadExReq_miss_latency::.cpu.data   4261194000                       # number of ReadExReq miss cycles
system.l2.ReadExReq_miss_latency::total    4261194000                       # number of ReadExReq miss cycles
system.l2.ReadExReq_accesses::.cpu.data         38936                       # number of ReadExReq accesses(hits+misses)
system.l2.ReadExReq_accesses::total             38936                       # number of ReadExReq accesses(hits+misses)
system.l2.ReadExReq_miss_rate::.cpu.data     0.996815                       # miss rate for ReadExReq accesses
system.l2.ReadExReq_miss_rate::total         0.996815                       # miss rate for ReadExReq accesses
system.l2.ReadExReq_avg_miss_latency::.cpu.data 109790.631763                       # average ReadExReq miss latency
system.l2.ReadExReq_avg_miss_latency::total 109790.631763                       # average ReadExReq miss latency
system.l2.ReadExReq_mshr_misses::.cpu.data        38812                       # number of ReadExReq MSHR misses
system.l2.ReadExReq_mshr_misses::total          38812                       # number of ReadExReq MSHR misses
system.l2.ReadExReq_mshr_miss_latency::.cpu.data   3484954000                       # number of ReadExReq MSHR miss cycles
system.l2.ReadExReq_mshr_miss_latency::total   3484954000                       # number of ReadExReq MSHR miss cycles
system.l2.ReadExReq_mshr_miss_rate::.cpu.data     0.996815                       # mshr miss rate for ReadExReq accesses
system.l2.ReadExReq_mshr_miss_rate::total     0.996815                       # mshr miss rate for ReadExReq accesses
system.l2.ReadExReq_avg_mshr_miss_latency::.cpu.data 89790.631763                       # average ReadExReq mshr miss latency
system.l2.ReadExReq_avg_mshr_miss_latency::total 89790.631763                       # average ReadExReq mshr miss latency
system.l2.ReadCleanReq_hits::.cpu.inst             15                       # number of ReadCleanReq hits
system.l2.ReadCleanReq_hits::total                 15                       # number of ReadCleanReq hits
system.l2.ReadCleanReq_misses::.cpu.inst          513                       # number of ReadCleanReq misses
system.l2.ReadCleanReq_misses::total              513                       # number of ReadCleanReq misses
system.l2.ReadCleanReq_miss_latency::.cpu.inst     50018000                       # number of ReadCleanReq miss cycles
system.l2.ReadCleanReq_miss_latency::total     50018000                       # number of ReadCleanReq miss cycles
system.l2.ReadCleanReq_accesses::.cpu.inst          528                       # number of ReadCleanReq accesses(hits+misses)
system.l2.ReadCleanReq_accesses::total            528                       # number of ReadCleanReq accesses(hits+misses)
system.l2.ReadCleanReq_miss_rate::.cpu.inst     0.971591                       # miss rate for ReadCleanReq accesses
system.l2.ReadCleanReq_miss_rate::total      0.971591                       # miss rate for ReadCleanReq accesses
system.l2.ReadCleanReq_avg_miss_latency::.cpu.inst 97500.974659                       # average ReadCleanReq miss latency
system.l2.ReadCleanReq_avg_miss_latency::total 97500.974659                       # average ReadCleanReq miss latency
system.l2.ReadCleanReq_mshr_hits::.cpu.inst            1                       # number of ReadCleanReq MSHR hits
system.l2.ReadCleanReq_mshr_hits::total             1                       # number of ReadCleanReq MSHR hits
system.l2.ReadCleanReq_mshr_misses::.cpu.inst          512                       # number of ReadCleanReq MSHR misses
system.l2.ReadCleanReq_mshr_misses::total          512                       # number of ReadCleanReq MSHR misses
system.l2.ReadCleanReq_mshr_miss_latency::.cpu.inst     39698000                       # number of ReadCleanReq MSHR miss cycles
system.l2.ReadCleanReq_mshr_miss_latency::total     39698000                       # number of ReadCleanReq MSHR miss cycles
system.l2.ReadCleanReq_mshr_miss_rate::.cpu.inst     0.969697                       # mshr miss rate for ReadCleanReq accesses
system.l2.ReadCleanReq_mshr_miss_rate::total     0.969697                       # mshr miss rate for ReadCleanReq accesses
system.l2.ReadCleanReq_avg_mshr_miss_latency::.cpu.inst 77535.156250                       # average ReadCleanReq mshr miss latency
system.l2.ReadCleanReq_avg_mshr_miss_latency::total 77535.156250                       # average ReadCleanReq mshr miss latency
system.l2.ReadSharedReq_hits::.cpu.data         15750                       # number of ReadSharedReq hits
system.l2.ReadSharedReq_hits::total             15750                       # number of ReadSharedReq hits
system.l2.ReadSharedReq_misses::.cpu.data          545                       # number of ReadSharedReq misses
system.l2.ReadSharedReq_misses::total             545                       # number of ReadSharedReq misses
system.l2.ReadSharedReq_miss_latency::.cpu.data     59897000                       # number of ReadSharedReq miss cycles
system.l2.ReadSharedReq_miss_latency::total     59897000                       # number of ReadSharedReq miss cycles
system.l2.ReadSharedReq_accesses::.cpu.data        16295                       # number of ReadSharedReq accesses(hits+misses)
system.l2.ReadSharedReq_accesses::total         16295                       # number of ReadSharedReq accesses(hits+misses)
system.l2.ReadSharedReq_miss_rate::.cpu.data     0.033446                       # miss rate for ReadSharedReq accesses
system.l2.ReadSharedReq_miss_rate::total     0.033446                       # miss rate for ReadSharedReq accesses
system.l2.ReadSharedReq_avg_miss_latency::.cpu.data 109902.752294                       # average ReadSharedReq miss latency
system.l2.ReadSharedReq_avg_miss_latency::total 109902.752294                       # average ReadSharedReq miss latency
system.l2.ReadSharedReq_mshr_hits::.cpu.data            5                       # number of ReadSharedReq MSHR hits
system.l2.ReadSharedReq_mshr_hits::total            5                       # number of ReadSharedReq MSHR hits
system.l2.ReadSharedReq_mshr_misses::.cpu.data          540                       # number of ReadSharedReq MSHR misses
system.l2.ReadSharedReq_mshr_misses::total          540                       # number of ReadSharedReq MSHR misses
system.l2.ReadSharedReq_mshr_miss_latency::.cpu.data     48689000                       # number of ReadSharedReq MSHR miss cycles
system.l2.ReadSharedReq_mshr_miss_latency::total     48689000                       # number of ReadSharedReq MSHR miss cycles
system.l2.ReadSharedReq_mshr_miss_rate::.cpu.data     0.033139                       # mshr miss rate for ReadSharedReq accesses
system.l2.ReadSharedReq_mshr_miss_rate::total     0.033139                       # mshr miss rate for ReadSharedReq accesses
system.l2.ReadSharedReq_avg_mshr_miss_latency::.cpu.data 90164.814815                       # average ReadSharedReq mshr miss latency
system.l2.ReadSharedReq_avg_mshr_miss_latency::total 90164.814815                       # average ReadSharedReq mshr miss latency
system.l2.tags.pwrStateResidencyTicks::UNDEFINED 113655171000                       # Cumulative time (in ticks) in various power states
system.l2.tags.tagsinuse                 26158.742379                       # Cycle average of tags in use
system.l2.tags.total_refs                      109967                       # Total number of references to valid blocks.
system.l2.tags.sampled_refs                     39866                       # Sample count of references to valid blocks.
system.l2.tags.avg_refs                      2.758416                       # Average number of references to valid blocks.
system.l2.tags.warmup_cycle                     87000                       # Cycle when the warmup percentage was hit.
system.l2.tags.occ_blocks::.writebacks       0.257692                       # Average occupied blocks per requestor
system.l2.tags.occ_blocks::.cpu.inst       300.221653                       # Average occupied blocks per requestor
system.l2.tags.occ_blocks::.cpu.data     25858.263034                       # Average occupied blocks per requestor
system.l2.tags.occ_percent::.writebacks      0.000008                       # Average percentage of cache occupancy
system.l2.tags.occ_percent::.cpu.inst        0.009162                       # Average percentage of cache occupancy
system.l2.tags.occ_percent::.cpu.data        0.789132                       # Average percentage of cache occupancy
system.l2.tags.occ_percent::total            0.798301                       # Average percentage of cache occupancy
system.l2.tags.occ_task_id_blocks::1024         32768                       # Occupied blocks per task id
system.l2.tags.age_task_id_blocks_1024::0            2                       # Occupied blocks per task id
system.l2.tags.age_task_id_blocks_1024::1           17                       # Occupied blocks per task id
system.l2.tags.age_task_id_blocks_1024::2          187                       # Occupied blocks per task id
system.l2.tags.age_task_id_blocks_1024::3         1908                       # Occupied blocks per task id
system.l2.tags.age_task_id_blocks_1024::4        30654                       # Occupied blocks per task id
system.l2.tags.occ_task_id_percent::1024            1                       # Percentage of cache occupancy per task id
system.l2.tags.tag_accesses                    919666                       # Number of tag accesses
system.l2.tags.data_accesses                   919666                       # Number of data accesses
system.cpu_voltage_domain.voltage                   1                       # Voltage in Volts
system.mem_ctrls.pwrStateResidencyTicks::UNDEFINED 113655171000                       # Cumulative time (in ticks) in various power states
system.mem_ctrls.bytes_read::.cpu.inst          32768                       # Number of bytes read from this memory
system.mem_ctrls.bytes_read::.cpu.data        2518528                       # Number of bytes read from this memory
system.mem_ctrls.bytes_read::total            2551296                       # Number of bytes read from this memory
system.mem_ctrls.bytes_inst_read::.cpu.inst        32768                       # Number of instructions bytes read from this memory
system.mem_ctrls.bytes_inst_read::total         32768                       # Number of instructions bytes read from this memory
system.mem_ctrls.bytes_written::.writebacks       416384                       # Number of bytes written to this memory
system.mem_ctrls.bytes_written::total          416384                       # Number of bytes written to this memory
system.mem_ctrls.num_reads::.cpu.inst             512                       # Number of read requests responded to by this memory
system.mem_ctrls.num_reads::.cpu.data           39352                       # Number of read requests responded to by this memory
system.mem_ctrls.num_reads::total               39864                       # Number of read requests responded to by this memory
system.mem_ctrls.num_writes::.writebacks         6506                       # Number of write requests responded to by this memory
system.mem_ctrls.num_writes::total               6506                       # Number of write requests responded to by this memory
system.mem_ctrls.bw_read::.cpu.inst            288311                       # Total read bandwidth from this memory (bytes/s)
system.mem_ctrls.bw_read::.cpu.data          22159379                       # Total read bandwidth from this memory (bytes/s)
system.mem_ctrls.bw_read::total              22447690                       # Total read bandwidth from this memory (bytes/s)
system.mem_ctrls.bw_inst_read::.cpu.inst       288311                       # Instruction read bandwidth from this memory (bytes/s)
system.mem_ctrls.bw_inst_read::total           288311                       # Instruction read bandwidth from this memory (bytes/s)
system.mem_ctrls.bw_write::.writebacks        3663573                       # Write bandwidth from this memory (bytes/s)
system.mem_ctrls.bw_write::total              3663573                       # Write bandwidth from this memory (bytes/s)
system.mem_ctrls.bw_total::.writebacks        3663573                       # Total bandwidth to/from this memory (bytes/s)
system.mem_ctrls.bw_total::.cpu.inst           288311                       # Total bandwidth to/from this memory (bytes/s)
system.mem_ctrls.bw_total::.cpu.data         22159379                       # Total bandwidth to/from this memory (bytes/s)
system.mem_ctrls.bw_total::total             26111262                       # Total bandwidth to/from this memory (bytes/s)
system.mem_ctrls.avgPriority_.writebacks::samples      6506.00                       # Average QoS priority value for accepted requests
system.mem_ctrls.avgPriority_.cpu.inst::samples       512.00                       # Average QoS priority value for accepted requests
system.mem_ctrls.avgPriority_.cpu.data::samples     39349.00                       # Average QoS priority value for accepted requests
system.mem_ctrls.priorityMinLatency      0.000000018750                       # per QoS priority minimum request to response latency (s)
system.mem_ctrls.priorityMaxLatency      0.035195230500                       # per QoS priority maximum request to response latency (s)
system.mem_ctrls.numReadWriteTurnArounds          360                       # Number of turnarounds from READ to WRITE
system.mem_ctrls.numWriteReadTurnArounds          360                       # Number of turnarounds from WRITE to READ
system.mem_ctrls.numStayReadState              115392                       # Number of times bus staying in READ state
system.mem_ctrls.numStayWriteState               6138                       # Number of times bus staying in WRITE state
system.mem_ctrls.readReqs                       39864                       # Number of read requests accepted
system.mem_ctrls.writeReqs                       6506                       # Number of write requests accepted
system.mem_ctrls.readBursts                     39864                       # Number of DRAM read bursts, including those serviced by the write queue
system.mem_ctrls.writeBursts                     6506                       # Number of DRAM write bursts, including those merged in the write queue
system.mem_ctrls.servicedByWrQ                      3                       # Number of DRAM read bursts serviced by the write queue
system.mem_ctrls.mergedWrBursts                     0                       # Number of DRAM write bursts merged with an existing one
system.mem_ctrls.neitherReadNorWriteReqs            0                       # Number of requests that are neither read nor write
system.mem_ctrls.perBankRdBursts::0              2477                       # Per bank write bursts
system.mem_ctrls.perBankRdBursts::1              2365                       # Per bank write bursts
system.mem_ctrls.perBankRdBursts::2              2347                       # Per bank write bursts
system.mem_ctrls.perBankRdBursts::3              2611                       # Per bank write bursts
system.mem_ctrls.perBankRdBursts::4              2682                       # Per bank write bursts
system.mem_ctrls.perBankRdBursts::5              2456                       # Per bank write bursts
system.mem_ctrls.perBankRdBursts::6              2446                       # Per bank write bursts
system.mem_ctrls.perBankRdBursts::7              2471                       # Per bank write bursts
system.mem_ctrls.perBankRdBursts::8              2473                       # Per bank write bursts
system.mem_ctrls.perBankRdBursts::9              2505                       # Per bank write bursts
system.mem_ctrls.perBankRdBursts::10             2488                       # Per bank write bursts
system.mem_ctrls.perBankRdBursts::11             2512                       # Per bank write bursts
system.mem_ctrls.perBankRdBursts::12             2510                       # Per bank write bursts
system.mem_ctrls.perBankRdBursts::13             2470                       # Per bank write bursts
system.mem_ctrls.perBankRdBursts::14             2553                       # Per bank write bursts
system.mem_ctrls.perBankRdBursts::15             2495                       # Per bank write bursts
system.mem_ctrls.perBankWrBursts::0               360                       # Per bank write bursts
system.mem_ctrls.perBankWrBursts::1               287                       # Per bank write bursts
system.mem_ctrls.perBankWrBursts::2               285                       # Per bank write bursts
system.mem_ctrls.perBankWrBursts::3               480                       # Per bank write bursts
system.mem_ctrls.perBankWrBursts::4               610                       # Per bank write bursts
system.mem_ctrls.perBankWrBursts::5               407                       # Per bank write bursts
system.mem_ctrls.perBankWrBursts::6               398                       # Per bank write bursts
system.mem_ctrls.perBankWrBursts::7               395                       # Per bank write bursts
system.mem_ctrls.perBankWrBursts::8               402                       # Per bank write bursts
system.mem_ctrls.perBankWrBursts::9               403                       # Per bank write bursts
system.mem_ctrls.perBankWrBursts::10              404                       # Per bank write bursts
system.mem_ctrls.perBankWrBursts::11              400                       # Per bank write bursts
system.mem_ctrls.perBankWrBursts::12              413                       # Per bank write bursts
system.mem_ctrls.perBankWrBursts::13              401                       # Per bank write bursts
system.mem_ctrls.perBankWrBursts::14              430                       # Per bank write bursts
system.mem_ctrls.perBankWrBursts::15              413                       # Per bank write bursts
system.mem_ctrls.avgRdQLen                       1.00                       # Average read queue length when enqueuing
system.mem_ctrls.avgWrQLen                      12.30                       # Average write queue length when enqueuing
system.mem_ctrls.totQLat                    777964250                       # Total ticks spent queuing
system.mem_ctrls.totBusLat                  199305000                       # Total ticks spent in databus transfers
system.mem_ctrls.totMemAccLat              1525358000                       # Total ticks spent from burst creation until serviced by the DRAM
system.mem_ctrls.avgQLat                     19516.93                       # Average queueing delay per DRAM burst
system.mem_ctrls.avgBusLat                    5000.00                       # Average bus latency per DRAM burst
system.mem_ctrls.avgMemAccLat                38266.93                       # Average memory access latency per DRAM burst
system.mem_ctrls.numRdRetry                         0                       # Number of times read queue was full causing retry
system.mem_ctrls.numWrRetry                         0                       # Number of times write queue was full causing retry
system.mem_ctrls.readRowHits                    19978                       # Number of row buffer hits during reads
system.mem_ctrls.writeRowHits                    5509                       # Number of row buffer hits during writes
system.mem_ctrls.readRowHitRate                 50.12                       # Row buffer hit rate for reads
system.mem_ctrls.writeRowHitRate                84.68                       # Row buffer hit rate for writes
system.mem_ctrls.readPktSize::0                     0                       # Read request sizes (log2)
system.mem_ctrls.readPktSize::1                     0                       # Read request sizes (log2)
system.mem_ctrls.readPktSize::2                     0                       # Read request sizes (log2)
system.mem_ctrls.readPktSize::3                     0                       # Read request sizes (log2)
system.mem_ctrls.readPktSize::4                     0                       # Read request sizes (log2)
system.mem_ctrls.readPktSize::5                     0                       # Read request sizes (log2)
system.mem_ctrls.readPktSize::6                 39864                       # Read request sizes (log2)
system.mem_ctrls.writePktSize::0                    0                       # Write request sizes (log2)
system.mem_ctrls.writePktSize::1                    0                       # Write request sizes (log2)
system.mem_ctrls.writePktSize::2                    0                       # Write request sizes (log2)
system.mem_ctrls.writePktSize::3                    0                       # Write request sizes (log2)
system.mem_ctrls.writePktSize::4                    0                       # Write request sizes (log2)
system.mem_ctrls.writePktSize::5                    0                       # Write request sizes (log2)
system.mem_ctrls.writePktSize::6                 6506                       # Write request sizes (log2)
system.mem_ctrls.rdQLenPdf::0                   39704                       # What read queue length does an incoming req see
system.mem_ctrls.rdQLenPdf::1                     152                       # What read queue length does an incoming req see
system.mem_ctrls.rdQLenPdf::2                       5                       # What read queue length does an incoming req see
system.mem_ctrls.rdQLenPdf::3                       0                       # What read queue length does an incoming req see
system.mem_ctrls.rdQLenPdf::4                       0                       # What read queue length does an incoming req see
system.mem_ctrls.rdQLenPdf::5                       0                       # What read queue length does an incoming req see
system.mem_ctrls.rdQLenPdf::6                       0                       # What read queue length does an incoming req see
system.mem_ctrls.rdQLenPdf::7                       0                       # What read queue length does an incoming req see
system.mem_ctrls.rdQLenPdf::8                       0                       # What read queue length does an incoming req see
system.mem_ctrls.rdQLenPdf::9                       0                       # What read queue length does an incoming req see
system.mem_ctrls.rdQLenPdf::10                      0                       # What read queue length does an incoming req see
system.mem_ctrls.rdQLenPdf::11                      0                       # What read queue length does an incoming req see
system.mem_ctrls.rdQLenPdf::12                      0                       # What read queue length does an incoming req see
system.mem_ctrls.rdQLenPdf::13                      0                       # What read queue length does an incoming req see
system.mem_ctrls.rdQLenPdf::14                      0                       # What read queue length does an incoming req see
system.mem_ctrls.rdQLenPdf::15                      0                       # What read queue length does an incoming req see
system.mem_ctrls.rdQLenPdf::16                      0                       # What read queue length does an incoming req see
system.mem_ctrls.rdQLenPdf::17                      0                       # What read queue length does an incoming req see
system.mem_ctrls.rdQLenPdf::18                      0                       # What read queue length does an incoming req see
system.mem_ctrls.rdQLenPdf::19                      0                       # What read queue length does an incoming req see
system.mem_ctrls.rdQLenPdf::20                      0                       # What read queue length does an incoming req see
system.mem_ctrls.rdQLenPdf::21                      0                       # What read queue length does an incoming req see
system.mem_ctrls.rdQLenPdf::22                      0                       # What read queue length does an incoming req see
system.mem_ctrls.rdQLenPdf::23                      0                       # What read queue length does an incoming req see
system.mem_ctrls.rdQLenPdf::24                      0                       # What read queue length does an incoming req see
system.mem_ctrls.rdQLenPdf::25                      0                       # What read queue length does an incoming req see
system.mem_ctrls.rdQLenPdf::26                      0                       # What read queue length does an incoming req see
system.mem_ctrls.rdQLenPdf::27                      0                       # What read queue length does an incoming req see
system.mem_ctrls.rdQLenPdf::28                      0                       # What read queue length does an incoming req see
system.mem_ctrls.rdQLenPdf::29                      0                       # What read queue length does an incoming req see
system.mem_ctrls.rdQLenPdf::30                      0                       # What read queue length does an incoming req see
system.mem_ctrls.rdQLenPdf::31                      0                       # What read queue length does an incoming req see
system.mem_ctrls.wrQLenPdf::0                       1                       # What write queue length does an incoming req see
system.mem_ctrls.wrQLenPdf::1                       1                       # What write queue length does an incoming req see
system.mem_ctrls.wrQLenPdf::2                       1                       # What write queue length does an incoming req see
system.mem_ctrls.wrQLenPdf::3                       1                       # What write queue length does an incoming req see
system.mem_ctrls.wrQLenPdf::4                       1                       # What write queue length does an incoming req see
system.mem_ctrls.wrQLenPdf::5                       1                       # What write queue length does an incoming req see
system.mem_ctrls.wrQLenPdf::6                       1                       # What write queue length does an incoming req see
system.mem_ctrls.wrQLenPdf::7                       1                       # What write queue length does an incoming req see
system.mem_ctrls.wrQLenPdf::8                       1                       # What write queue length does an incoming req see
system.mem_ctrls.wrQLenPdf::9                       1                       # What write queue length does an incoming req see
system.mem_ctrls.wrQLenPdf::10                      1                       # What write queue length does an incoming req see
system.mem_ctrls.wrQLenPdf::11                      1                       # What write queue length does an incoming req see
system.mem_ctrls.wrQLenPdf::12                      1                       # What write queue length does an incoming req see
system.mem_ctrls.wrQLenPdf::13                      1                       # What write queue length does an incoming req see
system.mem_ctrls.wrQLenPdf::14                      1                       # What write queue length does an incoming req see
system.mem_ctrls.wrQLenPdf::15                    360                       # What write queue length does an incoming req see
system.mem_ctrls.wrQLenPdf::16                    360                       # What write queue length does an incoming req see
system.mem_ctrls.wrQLenPdf::17                    361                       # What write queue length does an incoming req see
system.mem_ctrls.wrQLenPdf::18                    360                       # What write queue length does an incoming req see
system.mem_ctrls.wrQLenPdf::19                    361                       # What write queue length does an incoming req see
system.mem_ctrls.wrQLenPdf::20                    360                       # What write queue length does an incoming req see
system.mem_ctrls.wrQLenPdf::21                    361                       # What write queue length does an incoming req see
system.mem_ctrls.wrQLenPdf::22                    362                       # What write queue length does an incoming req see
system.mem_ctrls.wrQLenPdf::23                    364                       # What write queue length does an incoming req see
system.mem_ctrls.wrQLenPdf::24                    360                       # What write queue length does an incoming req see
system.mem_ctrls.wrQLenPdf::25                    361                       # What write queue length does an incoming req see
system.mem_ctrls.wrQLenPdf::26                    360                       # What write queue length does an incoming req see
system.mem_ctrls.wrQLenPdf::27                    361                       # What write queue length does an incoming req see
system.mem_ctrls.wrQLenPdf::28                    360                       # What write queue length does an incoming req see
system.mem_ctrls.wrQLenPdf::29                    360                       # What write queue length does an incoming req see
system.mem_ctrls.wrQLenPdf::30                    360                       # What write queue length does an incoming req see
system.mem_ctrls.wrQLenPdf::31                    360                       # What write queue length does an incoming req see
system.mem_ctrls.wrQLenPdf::32                    360                       # What write queue length does an incoming req see
system.mem_ctrls.wrQLenPdf::33                      0                       # What write queue length does an incoming req see
system.mem_ctrls.wrQLenPdf::34                      0                       # What write queue length does an incoming req see
system.mem_ctrls.wrQLenPdf::35                      0                       # What write queue length does an incoming req see
system.mem_ctrls.wrQLenPdf::36                      0                       # What write queue length does an incoming req see
system.mem_ctrls.wrQLenPdf::37                      0                       # What write queue length does an incoming req see
system.mem_ctrls.wrQLenPdf::38                      0                       # What write queue length does an incoming req see
system.mem_ctrls.wrQLenPdf::39                      0                       # What write queue length does an incoming req see
system.mem_ctrls.wrQLenPdf::40                      0                       # What write queue length does an incoming req see
system.mem_ctrls.wrQLenPdf::41                      0                       # What write queue length does an incoming req see
system.mem_ctrls.wrQLenPdf::42                      0                       # What write queue length does an incoming req see
system.mem_ctrls.wrQLenPdf::43                      0                       # What write queue length does an incoming req see
system.mem_ctrls.wrQLenPdf::44                      0                       # What write queue length does an incoming req see
system.mem_ctrls.wrQLenPdf::45                      0                       # What write queue length does an incoming req see
system.mem_ctrls.wrQLenPdf::46                      0                       # What write queue length does an incoming req see
system.mem_ctrls.wrQLenPdf::47                      0                       # What write queue length does an incoming req see
system.mem_ctrls.wrQLenPdf::48                      0                       # What write queue length does an incoming req see
system.mem_ctrls.wrQLenPdf::49                      0                       # What write queue length does an incoming req see
system.mem_ctrls.wrQLenPdf::50                      0                       # What write queue length does an incoming req see
system.mem_ctrls.wrQLenPdf::51                      0                       # What write queue length does an incoming req see
system.mem_ctrls.wrQLenPdf::52                      0                       # What write queue length does an incoming req see
system.mem_ctrls.wrQLenPdf::53                      0                       # What write queue length does an incoming req see
system.mem_ctrls.wrQLenPdf::54                      0                       # What write queue length does an incoming req see
system.mem_ctrls.wrQLenPdf::55                      0                       # What write queue length does an incoming req see
system.mem_ctrls.wrQLenPdf::56                      0                       # What write queue length does an incoming req see
system.mem_ctrls.wrQLenPdf::57                      0                       # What write queue length does an incoming req see
system.mem_ctrls.wrQLenPdf::58                      0                       # What write queue length does an incoming req see
system.mem_ctrls.wrQLenPdf::59                      0                       # What write queue length does an incoming req see
system.mem_ctrls.wrQLenPdf::60                      0                       # What write queue length does an incoming req see
system.mem_ctrls.wrQLenPdf::61                      0                       # What write queue length does an incoming req see
system.mem_ctrls.wrQLenPdf::62                      0                       # What write queue length does an incoming req see
system.mem_ctrls.wrQLenPdf::63                      0                       # What write queue length does an incoming req see
system.mem_ctrls.bytesPerActivate::samples        20861                       # Bytes accessed per row activation
system.mem_ctrls.bytesPerActivate::mean    142.189157                       # Bytes accessed per row activation
system.mem_ctrls.bytesPerActivate::gmean   115.038476                       # Bytes accessed per row activation
system.mem_ctrls.bytesPerActivate::stdev   129.639821                       # Bytes accessed per row activation
system.mem_ctrls.bytesPerActivate::0-127         8303     39.80%     39.80% # Bytes accessed per row activation
system.mem_ctrls.bytesPerActivate::128-255        10020     48.03%     87.83% # Bytes accessed per row activation
system.mem_ctrls.bytesPerActivate::256-383         1692      8.11%     95.94% # Bytes accessed per row activation
system.mem_ctrls.bytesPerActivate::384-511          453      2.17%     98.12% # Bytes accessed per row activation
system.mem_ctrls.bytesPerActivate::512-639           48      0.23%     98.35% # Bytes accessed per row activation
system.mem_ctrls.bytesPerActivate::640-767           49      0.23%     98.58% # Bytes accessed per row activation
system.mem_ctrls.bytesPerActivate::768-895           41      0.20%     98.78% # Bytes accessed per row activation
system.mem_ctrls.bytesPerActivate::896-1023           55      0.26%     99.04% # Bytes accessed per row activation
system.mem_ctrls.bytesPerActivate::1024-1151          200      0.96%    100.00% # Bytes accessed per row activation
system.mem_ctrls.bytesPerActivate::total        20861                       # Bytes accessed per row activation
system.mem_ctrls.rdPerTurnAround::samples          360                       # Reads before turning the bus around for writes
system.mem_ctrls.rdPerTurnAround::mean     110.716667                       # Reads before turning the bus around for writes
system.mem_ctrls.rdPerTurnAround::gmean     19.472144                       # Reads before turning the bus around for writes
system.mem_ctrls.rdPerTurnAround::stdev   1535.938619                       # Reads before turning the bus around for writes
system.mem_ctrls.rdPerTurnAround::0-1023          357     99.17%     99.17% # Reads before turning the bus around for writes
system.mem_ctrls.rdPerTurnAround::1024-2047            2      0.56%     99.72% # Reads before turning the bus around for writes
[...]
system.cpu.icache.ReadReq_avg_miss_latency::total 100352.272727                       # average ReadReq miss latency
system.cpu.icache.ReadReq_mshr_misses::.cpu.inst          528                       # number of ReadReq MSHR misses
system.cpu.icache.ReadReq_mshr_misses::total          528                       # number of ReadReq MSHR misses
system.cpu.icache.ReadReq_mshr_miss_latency::.cpu.inst     51930000                       # number of ReadReq MSHR miss cycles
system.cpu.icache.ReadReq_mshr_miss_latency::total     51930000                       # number of ReadReq MSHR miss cycles
system.cpu.icache.ReadReq_mshr_miss_rate::.cpu.inst     0.000018                       # mshr miss rate for ReadReq accesses
system.cpu.icache.ReadReq_mshr_miss_rate::total     0.000018                       # mshr miss rate for ReadReq accesses
system.cpu.icache.ReadReq_avg_mshr_miss_latency::.cpu.inst 98352.272727                       # average ReadReq mshr miss latency
system.cpu.icache.ReadReq_avg_mshr_miss_latency::total 98352.272727                       # average ReadReq mshr miss latency
system.cpu.icache.tags.pwrStateResidencyTicks::UNDEFINED 113655171000                       # Cumulative time (in ticks) in various power states
system.cpu.icache.tags.tagsinuse           495.058711                       # Cycle average of tags in use
system.cpu.icache.tags.total_refs            28670517                       # Total number of references to valid blocks.
system.cpu.icache.tags.sampled_refs               528                       # Sample count of references to valid blocks.
system.cpu.icache.tags.avg_refs          54300.221591                       # Average number of references to valid blocks.
system.cpu.icache.tags.warmup_cycle            108000                       # Cycle when the warmup percentage was hit.
system.cpu.icache.tags.occ_blocks::.cpu.inst   495.058711                       # Average occupied blocks per requestor
system.cpu.icache.tags.occ_percent::.cpu.inst     0.483456                       # Average percentage of cache occupancy
system.cpu.icache.tags.occ_percent::total     0.483456                       # Average percentage of cache occupancy
system.cpu.icache.tags.occ_task_id_blocks::1024          496                       # Occupied blocks per task id
system.cpu.icache.tags.age_task_id_blocks_1024::4          496                       # Occupied blocks per task id
system.cpu.icache.tags.occ_task_id_percent::1024     0.484375                       # Percentage of cache occupancy per task id
system.cpu.icache.tags.tag_accesses          57341562                       # Number of tag accesses
system.cpu.icache.tags.data_accesses         57341562                       # Number of data accesses
system.cpu.dtb.walker.pwrStateResidencyTicks::UNDEFINED 113655171000                       # Cumulative time (in ticks) in various power states
system.cpu.dtb.stage2_mmu.stage2_tlb.walker.pwrStateResidencyTicks::UNDEFINED 113655171000                       # Cumulative time (in ticks) in various power states
system.cpu.dcache.pwrStateResidencyTicks::UNDEFINED 113655171000                       # Cumulative time (in ticks) in various power states
system.cpu.dcache.demand_hits::.cpu.data     34820906                       # number of demand (read+write) hits
system.cpu.dcache.demand_hits::total         34820906                       # number of demand (read+write) hits
system.cpu.dcache.overall_hits::.cpu.data     34824234                       # number of overall hits
system.cpu.dcache.overall_hits::total        34824234                       # number of overall hits
system.cpu.dcache.demand_misses::.cpu.data        75057                       # number of demand (read+write) misses
system.cpu.dcache.demand_misses::total          75057                       # number of demand (read+write) misses
system.cpu.dcache.overall_misses::.cpu.data        75094                       # number of overall misses
system.cpu.dcache.overall_misses::total         75094                       # number of overall misses
system.cpu.dcache.demand_miss_latency::.cpu.data   6231589000                       # number of demand (read+write) miss cycles
system.cpu.dcache.demand_miss_latency::total   6231589000                       # number of demand (read+write) miss cycles
system.cpu.dcache.overall_miss_latency::.cpu.data   6231589000                       # number of overall miss cycles
system.cpu.dcache.overall_miss_latency::total   6231589000                       # number of overall miss cycles
system.cpu.dcache.demand_accesses::.cpu.data     34895963                       # number of demand (read+write) accesses
system.cpu.dcache.demand_accesses::total     34895963                       # number of demand (read+write) accesses
system.cpu.dcache.overall_accesses::.cpu.data     34899328                       # number of overall (read+write) accesses
system.cpu.dcache.overall_accesses::total     34899328                       # number of overall (read+write) accesses
system.cpu.dcache.demand_miss_rate::.cpu.data     0.002151                       # miss rate for demand accesses
system.cpu.dcache.demand_miss_rate::total     0.002151                       # miss rate for demand accesses
system.cpu.dcache.overall_miss_rate::.cpu.data     0.002152                       # miss rate for overall accesses
system.cpu.dcache.overall_miss_rate::total     0.002152                       # miss rate for overall accesses
system.cpu.dcache.demand_avg_miss_latency::.cpu.data 83024.754520                       # average overall miss latency
system.cpu.dcache.demand_avg_miss_latency::total 83024.754520                       # average overall miss latency
system.cpu.dcache.overall_avg_miss_latency::.cpu.data 82983.846912                       # average overall miss latency
system.cpu.dcache.overall_avg_miss_latency::total 82983.846912                       # average overall miss latency
system.cpu.dcache.blocked_cycles::no_mshrs            0                       # number of cycles access was blocked
system.cpu.dcache.blocked_cycles::no_targets            0                       # number of cycles access was blocked
system.cpu.dcache.blocked::no_mshrs                 0                       # number of cycles access was blocked
system.cpu.dcache.blocked::no_targets               0                       # number of cycles access was blocked
system.cpu.dcache.avg_blocked_cycles::no_mshrs          nan                       # average number of cycles each access was blocked
system.cpu.dcache.avg_blocked_cycles::no_targets          nan                       # average number of cycles each access was blocked
system.cpu.dcache.writebacks::.writebacks        50416                       # number of writebacks
system.cpu.dcache.writebacks::total             50416                       # number of writebacks
system.cpu.dcache.demand_mshr_hits::.cpu.data        19858                       # number of demand (read+write) MSHR hits
system.cpu.dcache.demand_mshr_hits::total        19858                       # number of demand (read+write) MSHR hits
system.cpu.dcache.overall_mshr_hits::.cpu.data        19858                       # number of overall MSHR hits
system.cpu.dcache.overall_mshr_hits::total        19858                       # number of overall MSHR hits
system.cpu.dcache.demand_mshr_misses::.cpu.data        55199                       # number of demand (read+write) MSHR misses
system.cpu.dcache.demand_mshr_misses::total        55199                       # number of demand (read+write) MSHR misses
system.cpu.dcache.overall_mshr_misses::.cpu.data        55231                       # number of overall MSHR misses
system.cpu.dcache.overall_mshr_misses::total        55231                       # number of overall MSHR misses
system.cpu.dcache.demand_mshr_miss_latency::.cpu.data   4817944000                       # number of demand (read+write) MSHR miss cycles
system.cpu.dcache.demand_mshr_miss_latency::total   4817944000                       # number of demand (read+write) MSHR miss cycles
system.cpu.dcache.overall_mshr_miss_latency::.cpu.data   4820175000                       # number of overall MSHR miss cycles
system.cpu.dcache.overall_mshr_miss_latency::total   4820175000                       # number of overall MSHR miss cycles
system.cpu.dcache.demand_mshr_miss_rate::.cpu.data     0.001582                       # mshr miss rate for demand accesses
system.cpu.dcache.demand_mshr_miss_rate::total     0.001582                       # mshr miss rate for demand accesses
system.cpu.dcache.overall_mshr_miss_rate::.cpu.data     0.001583                       # mshr miss rate for overall accesses
system.cpu.dcache.overall_mshr_miss_rate::total     0.001583                       # mshr miss rate for overall accesses
system.cpu.dcache.demand_avg_mshr_miss_latency::.cpu.data 87283.175420                       # average overall mshr miss latency
system.cpu.dcache.demand_avg_mshr_miss_latency::total 87283.175420                       # average overall mshr miss latency
system.cpu.dcache.overall_avg_mshr_miss_latency::.cpu.data 87272.998859                       # average overall mshr miss latency
system.cpu.dcache.overall_avg_mshr_miss_latency::total 87272.998859                       # average overall mshr miss latency
system.cpu.dcache.replacements                  54207                       # number of replacements
system.cpu.dcache.ReadReq_hits::.cpu.data     20577257                       # number of ReadReq hits
system.cpu.dcache.ReadReq_hits::total        20577257                       # number of ReadReq hits
system.cpu.dcache.ReadReq_misses::.cpu.data        19488                       # number of ReadReq misses
system.cpu.dcache.ReadReq_misses::total         19488                       # number of ReadReq misses
system.cpu.dcache.ReadReq_miss_latency::.cpu.data    568247000                       # number of ReadReq miss cycles
system.cpu.dcache.ReadReq_miss_latency::total    568247000                       # number of ReadReq miss cycles
system.cpu.dcache.ReadReq_accesses::.cpu.data     20596745                       # number of ReadReq accesses(hits+misses)
system.cpu.dcache.ReadReq_accesses::total     20596745                       # number of ReadReq accesses(hits+misses)
system.cpu.dcache.ReadReq_miss_rate::.cpu.data     0.000946                       # miss rate for ReadReq accesses
system.cpu.dcache.ReadReq_miss_rate::total     0.000946                       # miss rate for ReadReq accesses
system.cpu.dcache.ReadReq_avg_miss_latency::.cpu.data 29158.815681                       # average ReadReq miss latency
system.cpu.dcache.ReadReq_avg_miss_latency::total 29158.815681                       # average ReadReq miss latency
system.cpu.dcache.ReadReq_mshr_hits::.cpu.data         3225                       # number of ReadReq MSHR hits
system.cpu.dcache.ReadReq_mshr_hits::total         3225                       # number of ReadReq MSHR hits
system.cpu.dcache.ReadReq_mshr_misses::.cpu.data        16263                       # number of ReadReq MSHR misses
system.cpu.dcache.ReadReq_mshr_misses::total        16263                       # number of ReadReq MSHR misses
system.cpu.dcache.ReadReq_mshr_miss_latency::.cpu.data    437338000                       # number of ReadReq MSHR miss cycles
system.cpu.dcache.ReadReq_mshr_miss_latency::total    437338000                       # number of ReadReq MSHR miss cycles
system.cpu.dcache.ReadReq_mshr_miss_rate::.cpu.data     0.000790                       # mshr miss rate for ReadReq accesses
system.cpu.dcache.ReadReq_mshr_miss_rate::total     0.000790                       # mshr miss rate for ReadReq accesses
system.cpu.dcache.ReadReq_avg_mshr_miss_latency::.cpu.data 26891.594417                       # average ReadReq mshr miss latency
system.cpu.dcache.ReadReq_avg_mshr_miss_latency::total 26891.594417                       # average ReadReq mshr miss latency
system.cpu.dcache.WriteReq_hits::.cpu.data     14243649                       # number of WriteReq hits
system.cpu.dcache.WriteReq_hits::total       14243649                       # number of WriteReq hits
system.cpu.dcache.WriteReq_misses::.cpu.data        55569                       # number of WriteReq misses
system.cpu.dcache.WriteReq_misses::total        55569                       # number of WriteReq misses
system.cpu.dcache.WriteReq_miss_latency::.cpu.data   5663342000                       # number of WriteReq miss cycles
system.cpu.dcache.WriteReq_miss_latency::total   5663342000                       # number of WriteReq miss cycles
system.cpu.dcache.WriteReq_accesses::.cpu.data     14299218                       # number of WriteReq accesses(hits+misses)
system.cpu.dcache.WriteReq_accesses::total     14299218                       # number of WriteReq accesses(hits+misses)
system.cpu.dcache.WriteReq_miss_rate::.cpu.data     0.003886                       # miss rate for WriteReq accesses
system.cpu.dcache.WriteReq_miss_rate::total     0.003886                       # miss rate for WriteReq accesses
system.cpu.dcache.WriteReq_avg_miss_latency::.cpu.data 101915.492451                       # average WriteReq miss latency
system.cpu.dcache.WriteReq_avg_miss_latency::total 101915.492451                       # average WriteReq miss latency
system.cpu.dcache.WriteReq_mshr_hits::.cpu.data        16633                       # number of WriteReq MSHR hits
system.cpu.dcache.WriteReq_mshr_hits::total        16633                       # number of WriteReq MSHR hits
system.cpu.dcache.WriteReq_mshr_misses::.cpu.data        38936                       # number of WriteReq MSHR misses
system.cpu.dcache.WriteReq_mshr_misses::total        38936                       # number of WriteReq MSHR misses
system.cpu.dcache.WriteReq_mshr_miss_latency::.cpu.data   4380606000                       # number of WriteReq MSHR miss cycles
system.cpu.dcache.WriteReq_mshr_miss_latency::total   4380606000                       # number of WriteReq MSHR miss cycles
system.cpu.dcache.WriteReq_mshr_miss_rate::.cpu.data     0.002723                       # mshr miss rate for WriteReq accesses
system.cpu.dcache.WriteReq_mshr_miss_rate::total     0.002723                       # mshr miss rate for WriteReq accesses
system.cpu.dcache.WriteReq_avg_mshr_miss_latency::.cpu.data 112507.859051                       # average WriteReq mshr miss latency
system.cpu.dcache.WriteReq_avg_mshr_miss_latency::total 112507.859051                       # average WriteReq mshr miss latency
system.cpu.dcache.SoftPFReq_hits::.cpu.data         3328                       # number of SoftPFReq hits
system.cpu.dcache.SoftPFReq_hits::total          3328                       # number of SoftPFReq hits
system.cpu.dcache.SoftPFReq_misses::.cpu.data           37                       # number of SoftPFReq misses
system.cpu.dcache.SoftPFReq_misses::total           37                       # number of SoftPFReq misses
system.cpu.dcache.SoftPFReq_accesses::.cpu.data         3365                       # number of SoftPFReq accesses(hits+misses)
system.cpu.dcache.SoftPFReq_accesses::total         3365                       # number of SoftPFReq accesses(hits+misses)
system.cpu.dcache.SoftPFReq_miss_rate::.cpu.data     0.010996                       # miss rate for SoftPFReq accesses
system.cpu.dcache.SoftPFReq_miss_rate::total     0.010996                       # miss rate for SoftPFReq accesses
system.cpu.dcache.SoftPFReq_mshr_misses::.cpu.data           32                       # number of SoftPFReq MSHR misses
system.cpu.dcache.SoftPFReq_mshr_misses::total           32                       # number of SoftPFReq MSHR misses
system.cpu.dcache.SoftPFReq_mshr_miss_latency::.cpu.data      2231000                       # number of SoftPFReq MSHR miss cycles
system.cpu.dcache.SoftPFReq_mshr_miss_latency::total      2231000                       # number of SoftPFReq MSHR miss cycles
system.cpu.dcache.SoftPFReq_mshr_miss_rate::.cpu.data     0.009510                       # mshr miss rate for SoftPFReq accesses
system.cpu.dcache.SoftPFReq_mshr_miss_rate::total     0.009510                       # mshr miss rate for SoftPFReq accesses
system.cpu.dcache.SoftPFReq_avg_mshr_miss_latency::.cpu.data 69718.750000                       # average SoftPFReq mshr miss latency
system.cpu.dcache.SoftPFReq_avg_mshr_miss_latency::total 69718.750000                       # average SoftPFReq mshr miss latency
system.cpu.dcache.LoadLockedReq_hits::.cpu.data        89082                       # number of LoadLockedReq hits
system.cpu.dcache.LoadLockedReq_hits::total        89082                       # number of LoadLockedReq hits
system.cpu.dcache.LoadLockedReq_accesses::.cpu.data        89082                       # number of LoadLockedReq accesses(hits+misses)
system.cpu.dcache.LoadLockedReq_accesses::total        89082                       # number of LoadLockedReq accesses(hits+misses)
system.cpu.dcache.StoreCondReq_hits::.cpu.data        89082                       # number of StoreCondReq hits
system.cpu.dcache.StoreCondReq_hits::total        89082                       # number of StoreCondReq hits
system.cpu.dcache.StoreCondReq_accesses::.cpu.data        89082                       # number of StoreCondReq accesses(hits+misses)
system.cpu.dcache.StoreCondReq_accesses::total        89082                       # number of StoreCondReq accesses(hits+misses)
system.cpu.dcache.tags.pwrStateResidencyTicks::UNDEFINED 113655171000                       # Cumulative time (in ticks) in various power states
system.cpu.dcache.tags.tagsinuse          1020.763174                       # Cycle average of tags in use
system.cpu.dcache.tags.total_refs            35057629                       # Total number of references to valid blocks.
system.cpu.dcache.tags.sampled_refs             55231                       # Sample count of references to valid blocks.
system.cpu.dcache.tags.avg_refs            634.745505                       # Average number of references to valid blocks.
system.cpu.dcache.tags.warmup_cycle            240000                       # Cycle when the warmup percentage was hit.
system.cpu.dcache.tags.occ_blocks::.cpu.data  1020.763174                       # Average occupied blocks per requestor
system.cpu.dcache.tags.occ_percent::.cpu.data     0.996839                       # Average percentage of cache occupancy
system.cpu.dcache.tags.occ_percent::total     0.996839                       # Average percentage of cache occupancy
system.cpu.dcache.tags.occ_task_id_blocks::1024         1024                       # Occupied blocks per task id
system.cpu.dcache.tags.age_task_id_blocks_1024::0            3                       # Occupied blocks per task id
system.cpu.dcache.tags.age_task_id_blocks_1024::1           26                       # Occupied blocks per task id
system.cpu.dcache.tags.age_task_id_blocks_1024::2          256                       # Occupied blocks per task id
system.cpu.dcache.tags.age_task_id_blocks_1024::3          681                       # Occupied blocks per task id
system.cpu.dcache.tags.age_task_id_blocks_1024::4           58                       # Occupied blocks per task id
system.cpu.dcache.tags.occ_task_id_percent::1024            1                       # Percentage of cache occupancy per task id
system.cpu.dcache.tags.tag_accesses          70210215                       # Number of tag accesses
system.cpu.dcache.tags.data_accesses         70210215                       # Number of data accesses
system.cpu.itb.walker.pwrStateResidencyTicks::UNDEFINED 113655171000                       # Cumulative time (in ticks) in various power states
system.cpu.itb.stage2_mmu.stage2_tlb.walker.pwrStateResidencyTicks::UNDEFINED 113655171000                       # Cumulative time (in ticks) in various power states

---------- End Simulation Statistics   ----------
