
---------- Begin Simulation Statistics ----------
final_tick                               497467421000                       # Number of ticks from beginning of simulation (restored from checkpoints and never reset)
host_inst_rate                                 323788                       # Simulator instruction rate (inst/s)
host_mem_usage                                 701284                       # Number of bytes of host memory used
host_op_rate                                   596336                       # Simulator op (including micro ops) rate (op/s)
host_seconds                                   308.84                       # Real time elapsed on the host
host_tick_rate                             1610740584                       # Simulator tick rate (ticks/s)
sim_freq                                 1000000000000                       # Frequency of simulated ticks
sim_insts                                   100000001                       # Number of instructions simulated
sim_ops                                     184174809                       # Number of ops (including micro ops) simulated
sim_seconds                                  0.497467                       # Number of seconds simulated
sim_ticks                                497467421000                       # Number of ticks simulated
system.cpu.branchPred.BTBCorrect                    0                       # Number of correct BTB predictions (this stat may not work properly.
system.cpu.branchPred.BTBHitPct             99.956093                       # BTB Hit Percentage
system.cpu.branchPred.BTBHits                10560988                       # Number of BTB hits
system.cpu.branchPred.BTBLookups             10565627                       # Number of BTB lookups
system.cpu.branchPred.RASInCorrect                  5                       # Number of incorrect RAS predictions.
system.cpu.branchPred.condIncorrect              1455                       # Number of conditional branches incorrect
system.cpu.branchPred.condPredicted          10562109                       # Number of conditional branches predicted
system.cpu.branchPred.indirectHits                 27                       # Number of indirect target hits.
system.cpu.branchPred.indirectLookups             200                       # Number of indirect predictor lookups.
system.cpu.branchPred.indirectMisses              173                       # Number of indirect misses.
system.cpu.branchPred.lookups                10570336                       # Number of BP lookups
system.cpu.branchPred.usedRAS                    2720                       # Number of times the RAS was used to get a target.
system.cpu.branchPredindirectMispredicted           99                       # Number of mispredicted indirect branches.
system.cpu.committedInsts                   100000001                       # Number of instructions committed
system.cpu.committedOps                     184174809                       # Number of ops (including micro ops) committed
system.cpu.cpi                               4.974674                       # CPI: cycles per instruction
system.cpu.discardedOps                          4302                       # Number of ops (including micro ops) which were discarded before commit
system.cpu.dtb.accesses                             0                       # DTB accesses
system.cpu.dtb.align_faults                         0                       # Number of TLB faults due to alignment restrictions
system.cpu.dtb.domain_faults                        0                       # Number of TLB faults due to domain restrictions
system.cpu.dtb.flush_entries                        0                       # Number of entries that have been flushed from TLB
system.cpu.dtb.flush_tlb                            0                       # Number of times complete TLB was flushed
system.cpu.dtb.flush_tlb_asid                       0                       # Number of times TLB was flushed by ASID
system.cpu.dtb.flush_tlb_mva                        0                       # Number of times TLB was flushed by MVA
system.cpu.dtb.flush_tlb_mva_asid                   0                       # Number of times TLB was flushed by MVA & ASID
system.cpu.dtb.hits                                 0                       # DTB hits
system.cpu.dtb.inst_accesses                        0                       # ITB inst accesses
system.cpu.dtb.inst_hits                            0                       # ITB inst hits
system.cpu.dtb.inst_misses                          0                       # ITB inst misses
system.cpu.dtb.misses                               0                       # DTB misses
system.cpu.dtb.perms_faults                         0                       # Number of TLB faults due to permissions restrictions
system.cpu.dtb.prefetch_faults                      0                       # Number of TLB faults due to prefetch
system.cpu.dtb.read_accesses                        0                       # DTB read accesses
system.cpu.dtb.read_hits                            0                       # DTB read hits
system.cpu.dtb.read_misses                          0                       # DTB read misses
system.cpu.dtb.stage2_mmu.stage2_tlb.accesses            0                       # DTB accesses
system.cpu.dtb.stage2_mmu.stage2_tlb.align_faults            0                       # Number of TLB faults due to alignment restrictions
system.cpu.dtb.stage2_mmu.stage2_tlb.domain_faults            0                       # Number of TLB faults due to domain restrictions
system.cpu.dtb.stage2_mmu.stage2_tlb.flush_entries            0                       # Number of entries that have been flushed from TLB
system.cpu.dtb.stage2_mmu.stage2_tlb.flush_tlb            0                       # Number of times complete TLB was flushed
system.cpu.dtb.stage2_mmu.stage2_tlb.flush_tlb_asid            0                       # Number of times TLB was flushed by ASID
system.cpu.dtb.stage2_mmu.stage2_tlb.flush_tlb_mva            0                       # Number of times TLB was flushed by MVA
system.cpu.dtb.stage2_mmu.stage2_tlb.flush_tlb_mva_asid            0                       # Number of times TLB was flushed by MVA & ASID
system.cpu.dtb.stage2_mmu.stage2_tlb.hits            0                       # DTB hits
system.cpu.dtb.stage2_mmu.stage2_tlb.inst_accesses            0                       # ITB inst accesses
system.cpu.dtb.stage2_mmu.stage2_tlb.inst_hits            0                       # ITB inst hits
system.cpu.dtb.stage2_mmu.stage2_tlb.inst_misses            0                       # ITB inst misses
system.cpu.dtb.stage2_mmu.stage2_tlb.misses            0                       # DTB misses
system.cpu.dtb.stage2_mmu.stage2_tlb.perms_faults            0                       # Number of TLB faults due to permissions restrictions
system.cpu.dtb.stage2_mmu.stage2_tlb.prefetch_faults            0                       # Number of TLB faults due to prefetch
system.cpu.dtb.stage2_mmu.stage2_tlb.read_accesses            0                       # DTB read accesses
system.cpu.dtb.stage2_mmu.stage2_tlb.read_hits            0                       # DTB read hits
system.cpu.dtb.stage2_mmu.stage2_tlb.read_misses            0                       # DTB read misses
system.cpu.dtb.stage2_mmu.stage2_tlb.walker.walkRequestOrigin_Requested::Data            0                       # Table walker requests started/completed, data/inst
system.cpu.dtb.stage2_mmu.stage2_tlb.walker.walkRequestOrigin_Requested::Inst            0                       # Table walker requests started/completed, data/inst
system.cpu.dtb.stage2_mmu.stage2_tlb.walker.walkRequestOrigin_Requested::total            0                       # Table walker requests started/completed, data/inst
system.cpu.dtb.stage2_mmu.stage2_tlb.walker.walkRequestOrigin_Completed::Data            0                       # Table walker requests started/completed, data/inst
system.cpu.dtb.stage2_mmu.stage2_tlb.walker.walkRequestOrigin_Completed::Inst            0                       # Table walker requests started/completed, data/inst
system.cpu.dtb.stage2_mmu.stage2_tlb.walker.walkRequestOrigin_Completed::total            0                       # Table walker requests started/completed, data/inst
system.cpu.dtb.stage2_mmu.stage2_tlb.walker.walkRequestOrigin::total            0                       # Table walker requests started/completed, data/inst
system.cpu.dtb.stage2_mmu.stage2_tlb.walker.walks            0                       # Table walker walks requested
system.cpu.dtb.stage2_mmu.stage2_tlb.write_accesses            0                       # DTB write accesses
system.cpu.dtb.stage2_mmu.stage2_tlb.write_hits            0                       # DTB write hits
system.cpu.dtb.stage2_mmu.stage2_tlb.write_misses            0                       # DTB write misses
system.cpu.dtb.walker.walkRequestOrigin_Requested::Data            0                       # Table walker requests started/completed, data/inst
system.cpu.dtb.walker.walkRequestOrigin_Requested::Inst            0                       # Table walker requests started/completed, data/inst
system.cpu.dtb.walker.walkRequestOrigin_Requested::total            0                       # Table walker requests started/completed, data/inst
system.cpu.dtb.walker.walkRequestOrigin_Completed::Data            0                       # Table walker requests started/completed, data/inst
system.cpu.dtb.walker.walkRequestOrigin_Completed::Inst            0                       # Table walker requests started/completed, data/inst
system.cpu.dtb.walker.walkRequestOrigin_Completed::total            0                       # Table walker requests started/completed, data/inst
system.cpu.dtb.walker.walkRequestOrigin::total            0                       # Table walker requests started/completed, data/inst
system.cpu.dtb.walker.walks                         0                       # Table walker walks requested
system.cpu.dtb.write_accesses                       0                       # DTB write accesses
system.cpu.dtb.write_hits                           0                       # DTB write hits
system.cpu.dtb.write_misses                         0                       # DTB write misses
system.cpu.fetch2.amo_instructions                  0                       # Number of memory atomic instructions successfully decoded
system.cpu.fetch2.fp_instructions                   0                       # Number of floating point instructions successfully decoded
system.cpu.fetch2.int_instructions           44895151                       # Number of integer instructions successfully decoded
system.cpu.fetch2.load_instructions           2086451                       # Number of memory load instructions successfully decoded
system.cpu.fetch2.store_instructions           169135                       # Number of memory store instructions successfully decoded
system.cpu.fetch2.vec_instructions                  0                       # Number of SIMD instructions successfully decoded
system.cpu.idleCycles                       278896681                       # Total number of cycles that the object has spent stopped
system.cpu.ipc                               0.201018                       # IPC: instructions per cycle
system.cpu.itb.accesses                             0                       # DTB accesses
system.cpu.itb.align_faults                         0                       # Number of TLB faults due to alignment restrictions
system.cpu.itb.domain_faults                        0                       # Number of TLB faults due to domain restrictions
system.cpu.itb.flush_entries                        0                       # Number of entries that have been flushed from TLB
system.cpu.itb.flush_tlb                            0                       # Number of times complete TLB was flushed
system.cpu.itb.flush_tlb_asid                       0                       # Number of times TLB was flushed by ASID
system.cpu.itb.flush_tlb_mva                        0                       # Number of times TLB was flushed by MVA
system.cpu.itb.flush_tlb_mva_asid                   0                       # Number of times TLB was flushed by MVA & ASID
system.cpu.itb.hits                                 0                       # DTB hits
system.cpu.itb.inst_accesses                        0                       # ITB inst accesses
system.cpu.itb.inst_hits                            0                       # ITB inst hits
system.cpu.itb.inst_misses                          0                       # ITB inst misses
system.cpu.itb.misses                               0                       # DTB misses
system.cpu.itb.perms_faults                         0                       # Number of TLB faults due to permissions restrictions
system.cpu.itb.prefetch_faults                      0                       # Number of TLB faults due to prefetch
system.cpu.itb.read_accesses                        0                       # DTB read accesses
system.cpu.itb.read_hits                            0                       # DTB read hits
system.cpu.itb.read_misses                          0                       # DTB read misses
system.cpu.itb.stage2_mmu.stage2_tlb.accesses            0                       # DTB accesses
system.cpu.itb.stage2_mmu.stage2_tlb.align_faults            0                       # Number of TLB faults due to alignment restrictions
system.cpu.itb.stage2_mmu.stage2_tlb.domain_faults            0                       # Number of TLB faults due to domain restrictions
system.cpu.itb.stage2_mmu.stage2_tlb.flush_entries            0                       # Number of entries that have been flushed from TLB
system.cpu.itb.stage2_mmu.stage2_tlb.flush_tlb            0                       # Number of times complete TLB was flushed
system.cpu.itb.stage2_mmu.stage2_tlb.flush_tlb_asid            0                       # Number of times TLB was flushed by ASID
system.cpu.itb.stage2_mmu.stage2_tlb.flush_tlb_mva            0                       # Number of times TLB was flushed by MVA
system.cpu.itb.stage2_mmu.stage2_tlb.flush_tlb_mva_asid            0                       # Number of times TLB was flushed by MVA & ASID
system.cpu.itb.stage2_mmu.stage2_tlb.hits            0                       # DTB hits
system.cpu.itb.stage2_mmu.stage2_tlb.inst_accesses            0                       # ITB inst accesses
system.cpu.itb.stage2_mmu.stage2_tlb.inst_hits            0                       # ITB inst hits
system.cpu.itb.stage2_mmu.stage2_tlb.inst_misses            0                       # ITB inst misses
system.cpu.itb.stage2_mmu.stage2_tlb.misses            0                       # DTB misses
system.cpu.itb.stage2_mmu.stage2_tlb.perms_faults            0                       # Number of TLB faults due to permissions restrictions
system.cpu.itb.stage2_mmu.stage2_tlb.prefetch_faults            0                       # Number of TLB faults due to prefetch
system.cpu.itb.stage2_mmu.stage2_tlb.read_accesses            0                       # DTB read accesses
system.cpu.itb.stage2_mmu.stage2_tlb.read_hits            0                       # DTB read hits
system.cpu.itb.stage2_mmu.stage2_tlb.read_misses            0                       # DTB read misses
system.cpu.itb.stage2_mmu.stage2_tlb.walker.walkRequestOrigin_Requested::Data            0                       # Table walker requests started/completed, data/inst
system.cpu.itb.stage2_mmu.stage2_tlb.walker.walkRequestOrigin_Requested::Inst            0                       # Table walker requests started/completed, data/inst
system.cpu.itb.stage2_mmu.stage2_tlb.walker.walkRequestOrigin_Requested::total            0                       # Table walker requests started/completed, data/inst
system.cpu.itb.stage2_mmu.stage2_tlb.walker.walkRequestOrigin_Completed::Data            0                       # Table walker requests started/completed, data/inst
system.cpu.itb.stage2_mmu.stage2_tlb.walker.walkRequestOrigin_Completed::Inst            0                       # Table walker requests started/completed, data/inst
system.cpu.itb.stage2_mmu.stage2_tlb.walker.walkRequestOrigin_Completed::total            0                       # Table walker requests started/completed, data/inst
system.cpu.itb.stage2_mmu.stage2_tlb.walker.walkRequestOrigin::total            0                       # Table walker requests started/completed, data/inst
system.cpu.itb.stage2_mmu.stage2_tlb.walker.walks            0                       # Table walker walks requested
system.cpu.itb.stage2_mmu.stage2_tlb.write_accesses            0                       # DTB write accesses
system.cpu.itb.stage2_mmu.stage2_tlb.write_hits            0                       # DTB write hits
system.cpu.itb.stage2_mmu.stage2_tlb.write_misses            0                       # DTB write misses
system.cpu.itb.walker.walkRequestOrigin_Requested::Data            0                       # Table walker requests started/completed, data/inst
system.cpu.itb.walker.walkRequestOrigin_Requested::Inst            0                       # Table walker requests started/completed, data/inst
system.cpu.itb.walker.walkRequestOrigin_Requested::total            0                       # Table walker requests started/completed, data/inst
system.cpu.itb.walker.walkRequestOrigin_Completed::Data            0                       # Table walker requests started/completed, data/inst
system.cpu.itb.walker.walkRequestOrigin_Completed::Inst            0                       # Table walker requests started/completed, data/inst
system.cpu.itb.walker.walkRequestOrigin_Completed::total            0                       # Table walker requests started/completed, data/inst
system.cpu.itb.walker.walkRequestOrigin::total            0                       # Table walker requests started/completed, data/inst
system.cpu.itb.walker.walks                         0                       # Table walker walks requested
system.cpu.itb.write_accesses                       0                       # DTB write accesses
system.cpu.itb.write_hits                           0                       # DTB write hits
system.cpu.itb.write_misses                         0                       # DTB write misses
system.cpu.numCycles                        497467421                       # number of cpu cycles simulated
system.cpu.numFetchSuspends                         0                       # Number of times Execute suspended instruction fetching
system.cpu.numWorkItemsCompleted                    0                       # number of work items this cpu completed
system.cpu.numWorkItemsStarted                      0                       # number of work items this cpu started
system.cpu.op_class_0::No_OpClass                   0      0.00%      0.00% # Class of committed instruction
system.cpu.op_class_0::IntAlu                97640484     53.02%     53.02% # Class of committed instruction
system.cpu.op_class_0::IntMult                 114699      0.06%     53.08% # Class of committed instruction
system.cpu.op_class_0::IntDiv                       0      0.00%     53.08% # Class of committed instruction
system.cpu.op_class_0::FloatAdd                     0      0.00%     53.08% # Class of committed instruction
system.cpu.op_class_0::FloatCmp                     0      0.00%     53.08% # Class of committed instruction
system.cpu.op_class_0::FloatCvt                     0      0.00%     53.08% # Class of committed instruction
system.cpu.op_class_0::FloatMult                    0      0.00%     53.08% # Class of committed instruction
system.cpu.op_class_0::FloatMultAcc                 0      0.00%     53.08% # Class of committed instruction
system.cpu.op_class_0::FloatDiv                     0      0.00%     53.08% # Class of committed instruction
system.cpu.op_class_0::FloatMisc                    0      0.00%     53.08% # Class of committed instruction
system.cpu.op_class_0::FloatSqrt                    0      0.00%     53.08% # Class of committed instruction
system.cpu.op_class_0::SimdAdd                      8      0.00%     53.08% # Class of committed instruction
system.cpu.op_class_0::SimdAddAcc                   0      0.00%     53.08% # Class of committed instruction
system.cpu.op_class_0::SimdAlu                      8      0.00%     53.08% # Class of committed instruction
system.cpu.op_class_0::SimdCmp                      6      0.00%     53.08% # Class of committed instruction
system.cpu.op_class_0::SimdCvt                      0      0.00%     53.08% # Class of committed instruction
system.cpu.op_class_0::SimdMisc                     1      0.00%     53.08% # Class of committed instruction
system.cpu.op_class_0::SimdMult                     0      0.00%     53.08% # Class of committed instruction
system.cpu.op_class_0::SimdMultAcc                  0      0.00%     53.08% # Class of committed instruction
system.cpu.op_class_0::SimdShift                    0      0.00%     53.08% # Class of committed instruction
system.cpu.op_class_0::SimdShiftAcc                 0      0.00%     53.08% # Class of committed instruction
system.cpu.op_class_0::SimdDiv                      0      0.00%     53.08% # Class of committed instruction
system.cpu.op_class_0::SimdSqrt                     0      0.00%     53.08% # Class of committed instruction
system.cpu.op_class_0::SimdFloatAdd                 0      0.00%     53.08% # Class of committed instruction
system.cpu.op_class_0::SimdFloatAlu                 0      0.00%     53.08% # Class of committed instruction
system.cpu.op_class_0::SimdFloatCmp                 0      0.00%     53.08% # Class of committed instruction
system.cpu.op_class_0::SimdFloatCvt                 0      0.00%     53.08% # Class of committed instruction
system.cpu.op_class_0::SimdFloatDiv                 0      0.00%     53.08% # Class of committed instruction
system.cpu.op_class_0::SimdFloatMisc               23      0.00%     53.08% # Class of committed instruction
system.cpu.op_class_0::SimdFloatMult                0      0.00%     53.08% # Class of committed instruction
system.cpu.op_class_0::SimdFloatMultAcc             0      0.00%     53.08% # Class of committed instruction
system.cpu.op_class_0::SimdFloatSqrt                0      0.00%     53.08% # Class of committed instruction
system.cpu.op_class_0::SimdReduceAdd                0      0.00%     53.08% # Class of committed instruction
system.cpu.op_class_0::SimdReduceAlu                0      0.00%     53.08% # Class of committed instruction
system.cpu.op_class_0::SimdReduceCmp                0      0.00%     53.08% # Class of committed instruction
system.cpu.op_class_0::SimdFloatReduceAdd            0      0.00%     53.08% # Class of committed instruction
system.cpu.op_class_0::SimdFloatReduceCmp            0      0.00%     53.08% # Class of committed instruction
system.cpu.op_class_0::SimdAes                      0      0.00%     53.08% # Class of committed instruction
system.cpu.op_class_0::SimdAesMix                   0      0.00%     53.08% # Class of committed instruction
system.cpu.op_class_0::SimdSha1Hash                 0      0.00%     53.08% # Class of committed instruction
system.cpu.op_class_0::SimdSha1Hash2                0      0.00%     53.08% # Class of committed instruction
system.cpu.op_class_0::SimdSha256Hash               0      0.00%     53.08% # Class of committed instruction
system.cpu.op_class_0::SimdSha256Hash2              0      0.00%     53.08% # Class of committed instruction
system.cpu.op_class_0::SimdShaSigma2                0      0.00%     53.08% # Class of committed instruction
system.cpu.op_class_0::SimdShaSigma3                0      0.00%     53.08% # Class of committed instruction
system.cpu.op_class_0::SimdPredAlu                  0      0.00%     53.08% # Class of committed instruction
system.cpu.op_class_0::MemRead                2082680      1.13%     54.21% # Class of committed instruction
system.cpu.op_class_0::MemWrite              84336900     45.79%    100.00% # Class of committed instruction
system.cpu.op_class_0::FloatMemRead                 0      0.00%    100.00% # Class of committed instruction
system.cpu.op_class_0::FloatMemWrite                0      0.00%    100.00% # Class of committed instruction
system.cpu.op_class_0::IprAccess                    0      0.00%    100.00% # Class of committed instruction
system.cpu.op_class_0::InstPrefetch                 0      0.00%    100.00% # Class of committed instruction
system.cpu.op_class_0::total                184174809                       # Class of committed instruction
system.cpu.tickCycles                       218570740                       # Number of cycles that the object actually ticked
system.cpu.workload.numSyscalls                    18                       # Number of system calls
system.membus.snoop_filter.hit_multi_requests            0                       # Number of requests hitting in the snoop filter with multiple (>1) holders of the requested data.
system.membus.snoop_filter.hit_multi_snoops            0                       # Number of snoops hitting in the snoop filter with multiple (>1) holders of the requested data.
system.membus.snoop_filter.hit_single_requests      2615569                       # Number of requests hitting in the snoop filter with a single holder of the requested data.
system.membus.snoop_filter.hit_single_snoops            0                       # Number of snoops hitting in the snoop filter with a single holder of the requested data.
system.membus.snoop_filter.tot_requests       5247754                       # Total number of requests made to the snoop filter.
system.membus.snoop_filter.tot_snoops               0                       # Total number of snoops made to the snoop filter.
system.tol2bus.snoop_filter.hit_multi_requests           60                       # Number of requests hitting in the snoop filter with multiple (>1) holders of the requested data.
system.tol2bus.snoop_filter.hit_multi_snoops            0                       # Number of snoops hitting in the snoop filter with multiple (>1) holders of the requested data.
system.tol2bus.snoop_filter.hit_single_requests      2631786                       # Number of requests hitting in the snoop filter with a single holder of the requested data.
system.tol2bus.snoop_filter.hit_single_snoops          335                       # Number of snoops hitting in the snoop filter with a single holder of the requested data.
system.tol2bus.snoop_filter.tot_requests      5264326                       # Total number of requests made to the snoop filter.
system.tol2bus.snoop_filter.tot_snoops            335                       # Total number of snoops made to the snoop filter.
system.membus.pwrStateResidencyTicks::UNDEFINED 497467421000                       # Cumulative time (in ticks) in various power states
system.membus.trans_dist::ReadResp                588                       # Transaction distribution
system.membus.trans_dist::WritebackDirty      2615245                       # Transaction distribution
system.membus.trans_dist::CleanEvict              314                       # Transaction distribution
system.membus.trans_dist::ReadExReq           2631607                       # Transaction distribution
system.membus.trans_dist::ReadExResp          2631607                       # Transaction distribution
system.membus.trans_dist::ReadSharedReq           588                       # Transaction distribution
system.membus.pkt_count_system.l2.mem_side::system.mem_ctrls.port      7879949                       # Packet count per connected master and slave (bytes)
system.membus.pkt_count::total                7879949                       # Packet count per connected master and slave (bytes)
system.membus.pkt_size_system.l2.mem_side::system.mem_ctrls.port    671672320                       # Cumulative packet size per connected master and slave (bytes)
system.membus.pkt_size::total               671672320                       # Cumulative packet size per connected master and slave (bytes)
system.membus.snoops                                0                       # Total snoops (count)
system.membus.snoopTraffic                          0                       # Total snoop traffic (bytes)
system.membus.snoop_fanout::samples           2632195                       # Request fanout histogram
system.membus.snoop_fanout::mean                    0                       # Request fanout histogram
system.membus.snoop_fanout::stdev                   0                       # Request fanout histogram
system.membus.snoop_fanout::underflows              0      0.00%      0.00% # Request fanout histogram
system.membus.snoop_fanout::0                 2632195    100.00%    100.00% # Request fanout histogram
system.membus.snoop_fanout::1                       0      0.00%    100.00% # Request fanout histogram
system.membus.snoop_fanout::overflows               0      0.00%    100.00% # Request fanout histogram
system.membus.snoop_fanout::min_value               0                       # Request fanout histogram
system.membus.snoop_fanout::max_value               0                       # Request fanout histogram
system.membus.snoop_fanout::total             2632195                       # Request fanout histogram
system.membus.respLayer1.occupancy        24418736750                       # Layer occupancy (ticks)
system.membus.respLayer1.utilization              4.9                       # Layer utilization (%)
system.membus.reqLayer0.occupancy         26169714000                       # Layer occupancy (ticks)
system.membus.reqLayer0.utilization               5.3                       # Layer utilization (%)
system.tol2bus.pwrStateResidencyTicks::UNDEFINED 497467421000                       # Cumulative time (in ticks) in various power states
system.tol2bus.trans_dist::ReadResp               823                       # Transaction distribution
system.tol2bus.trans_dist::WritebackDirty      5246482                       # Transaction distribution
system.tol2bus.trans_dist::WritebackClean          231                       # Transaction distribution
system.tol2bus.trans_dist::CleanEvict             967                       # Transaction distribution
system.tol2bus.trans_dist::ReadExReq          2631717                       # Transaction distribution
system.tol2bus.trans_dist::ReadExResp         2631717                       # Transaction distribution
system.tol2bus.trans_dist::ReadCleanReq           473                       # Transaction distribution
system.tol2bus.trans_dist::ReadSharedReq          350                       # Transaction distribution
system.tol2bus.pkt_count_system.cpu.icache.mem_side::system.l2.cpu_side         1177                       # Packet count per connected master and slave (bytes)
system.tol2bus.pkt_count_system.cpu.dcache.mem_side::system.l2.cpu_side      7895689                       # Packet count per connected master and slave (bytes)
system.tol2bus.pkt_count::total               7896866                       # Packet count per connected master and slave (bytes)
system.tol2bus.pkt_size_system.cpu.icache.mem_side::system.l2.cpu_side        90112                       # Cumulative packet size per connected master and slave (bytes)
system.tol2bus.pkt_size_system.cpu.dcache.mem_side::system.l2.cpu_side    673702912                       # Cumulative packet size per connected master and slave (bytes)
system.tol2bus.pkt_size::total              673793024                       # Cumulative packet size per connected master and slave (bytes)
system.tol2bus.snoops                         2615894                       # Total snoops (count)
system.tol2bus.snoopTraffic                 334751360                       # Total snoop traffic (bytes)
system.tol2bus.snoop_fanout::samples          5248434                       # Request fanout histogram
system.tol2bus.snoop_fanout::mean            0.000075                       # Request fanout histogram
system.tol2bus.snoop_fanout::stdev           0.008675                       # Request fanout histogram
system.tol2bus.snoop_fanout::underflows             0      0.00%      0.00% # Request fanout histogram
system.tol2bus.snoop_fanout::0                5248039     99.99%     99.99% # Request fanout histogram
system.tol2bus.snoop_fanout::1                    395      0.01%    100.00% # Request fanout histogram
system.tol2bus.snoop_fanout::2                      0      0.00%    100.00% # Request fanout histogram
system.tol2bus.snoop_fanout::overflows              0      0.00%    100.00% # Request fanout histogram
system.tol2bus.snoop_fanout::min_value              0                       # Request fanout histogram
system.tol2bus.snoop_fanout::max_value              1                       # Request fanout histogram
system.tol2bus.snoop_fanout::total            5248434                       # Request fanout histogram
system.tol2bus.reqLayer0.occupancy        15790198000                       # Layer occupancy (ticks)
system.tol2bus.reqLayer0.utilization              3.2                       # Layer utilization (%)
system.tol2bus.respLayer1.occupancy       13160342992                       # Layer occupancy (ticks)
system.tol2bus.respLayer1.utilization             2.6                       # Layer utilization (%)
system.tol2bus.respLayer0.occupancy           2365999                       # Layer occupancy (ticks)
system.tol2bus.respLayer0.utilization             0.0                       # Layer utilization (%)
system.voltage_domain.voltage                       1                       # Voltage in Volts
system.clk_domain.clock                          1000                       # Clock period in ticks
system.l2.pwrStateResidencyTicks::UNDEFINED 497467421000                       # Cumulative time (in ticks) in various power states
system.l2.demand_hits::.cpu.inst                   82                       # number of demand (read+write) hits
system.l2.demand_hits::.cpu.data                  254                       # number of demand (read+write) hits
system.l2.demand_hits::total                      336                       # number of demand (read+write) hits
system.l2.overall_hits::.cpu.inst                  82                       # number of overall hits
system.l2.overall_hits::.cpu.data                 254                       # number of overall hits
system.l2.overall_hits::total                     336                       # number of overall hits
system.l2.demand_misses::.cpu.inst                391                       # number of demand (read+write) misses
system.l2.demand_misses::.cpu.data            2631813                       # number of demand (read+write) misses
system.l2.demand_misses::total                2632204                       # number of demand (read+write) misses
system.l2.overall_misses::.cpu.inst               391                       # number of overall misses
system.l2.overall_misses::.cpu.data           2631813                       # number of overall misses
system.l2.overall_misses::total               2632204                       # number of overall misses
system.l2.demand_miss_latency::.cpu.inst     42840000                       # number of demand (read+write) miss cycles
system.l2.demand_miss_latency::.cpu.data 299708844000                       # number of demand (read+write) miss cycles
system.l2.demand_miss_latency::total     299751684000                       # number of demand (read+write) miss cycles
system.l2.overall_miss_latency::.cpu.inst     42840000                       # number of overall miss cycles
system.l2.overall_miss_latency::.cpu.data 299708844000                       # number of overall miss cycles
system.l2.overall_miss_latency::total    299751684000                       # number of overall miss cycles
system.l2.demand_accesses::.cpu.inst              473                       # number of demand (read+write) accesses
system.l2.demand_accesses::.cpu.data          2632067                       # number of demand (read+write) accesses
system.l2.demand_accesses::total              2632540                       # number of demand (read+write) accesses
system.l2.overall_accesses::.cpu.inst             473                       # number of overall (read+write) accesses
system.l2.overall_accesses::.cpu.data         2632067                       # number of overall (read+write) accesses
system.l2.overall_accesses::total             2632540                       # number of overall (read+write) accesses
system.l2.demand_miss_rate::.cpu.inst        0.826638                       # miss rate for demand accesses
system.l2.demand_miss_rate::.cpu.data        0.999903                       # miss rate for demand accesses
system.l2.demand_miss_rate::total            0.999872                       # miss rate for demand accesses
system.l2.overall_miss_rate::.cpu.inst       0.826638                       # miss rate for overall accesses
system.l2.overall_miss_rate::.cpu.data       0.999903                       # miss rate for overall accesses
system.l2.overall_miss_rate::total           0.999872                       # miss rate for overall accesses
system.l2.demand_avg_miss_latency::.cpu.inst 109565.217391                       # average overall miss latency
system.l2.demand_avg_miss_latency::.cpu.data 113879.232301                       # average overall miss latency
system.l2.demand_avg_miss_latency::total 113878.591477                       # average overall miss latency
system.l2.overall_avg_miss_latency::.cpu.inst 109565.217391                       # average overall miss latency
system.l2.overall_avg_miss_latency::.cpu.data 113879.232301                       # average overall miss latency
system.l2.overall_avg_miss_latency::total 113878.591477                       # average overall miss latency
system.l2.blocked_cycles::no_mshrs                  0                       # number of cycles access was blocked
system.l2.blocked_cycles::no_targets                0                       # number of cycles access was blocked
system.l2.blocked::no_mshrs                         0                       # number of cycles access was blocked
system.l2.blocked::no_targets                       0                       # number of cycles access was blocked
system.l2.avg_blocked_cycles::no_mshrs            nan                       # average number of cycles each access was blocked
system.l2.avg_blocked_cycles::no_targets          nan                       # average number of cycles each access was blocked
system.l2.writebacks::.writebacks             2615245                       # number of writebacks
system.l2.writebacks::total                   2615245                       # number of writebacks
system.l2.demand_mshr_hits::.cpu.inst               1                       # number of demand (read+write) MSHR hits
system.l2.demand_mshr_hits::.cpu.data               8                       # number of demand (read+write) MSHR hits
system.l2.demand_mshr_hits::total                   9                       # number of demand (read+write) MSHR hits
system.l2.overall_mshr_hits::.cpu.inst              1                       # number of overall MSHR hits
system.l2.overall_mshr_hits::.cpu.data              8                       # number of overall MSHR hits
system.l2.overall_mshr_hits::total                  9                       # number of overall MSHR hits
system.l2.demand_mshr_misses::.cpu.inst           390                       # number of demand (read+write) MSHR misses
system.l2.demand_mshr_misses::.cpu.data       2631805                       # number of demand (read+write) MSHR misses
system.l2.demand_mshr_misses::total           2632195                       # number of demand (read+write) MSHR misses
system.l2.overall_mshr_misses::.cpu.inst          390                       # number of overall MSHR misses
system.l2.overall_mshr_misses::.cpu.data      2631805                       # number of overall MSHR misses
system.l2.overall_mshr_misses::total          2632195                       # number of overall MSHR misses
system.l2.demand_mshr_miss_latency::.cpu.inst     34946000                       # number of demand (read+write) MSHR miss cycles
system.l2.demand_mshr_miss_latency::.cpu.data 247072099000                       # number of demand (read+write) MSHR miss cycles
system.l2.demand_mshr_miss_latency::total 247107045000                       # number of demand (read+write) MSHR miss cycles
system.l2.overall_mshr_miss_latency::.cpu.inst     34946000                       # number of overall MSHR miss cycles
system.l2.overall_mshr_miss_latency::.cpu.data 247072099000                       # number of overall MSHR miss cycles
system.l2.overall_mshr_miss_latency::total 247107045000                       # number of overall MSHR miss cycles
system.l2.demand_mshr_miss_rate::.cpu.inst     0.824524                       # mshr miss rate for demand accesses
system.l2.demand_mshr_miss_rate::.cpu.data     0.999900                       # mshr miss rate for demand accesses
system.l2.demand_mshr_miss_rate::total       0.999869                       # mshr miss rate for demand accesses
system.l2.overall_mshr_miss_rate::.cpu.inst     0.824524                       # mshr miss rate for overall accesses
system.l2.overall_mshr_miss_rate::.cpu.data     0.999900                       # mshr miss rate for overall accesses
system.l2.overall_mshr_miss_rate::total      0.999869                       # mshr miss rate for overall accesses
system.l2.demand_avg_mshr_miss_latency::.cpu.inst 89605.128205                       # average overall mshr miss latency
system.l2.demand_avg_mshr_miss_latency::.cpu.data 93879.333385                       # average overall mshr miss latency
system.l2.demand_avg_mshr_miss_latency::total 93878.700096                       # average overall mshr miss latency
system.l2.overall_avg_mshr_miss_latency::.cpu.inst 89605.128205                       # average overall mshr miss latency
system.l2.overall_avg_mshr_miss_latency::.cpu.data 93879.333385                       # average overall mshr miss latency
system.l2.overall_avg_mshr_miss_latency::total 93878.700096                       # average overall mshr miss latency
system.l2.replacements                        2615894                       # number of replacements
system.l2.WritebackDirty_hits::.writebacks      2631237                       # number of WritebackDirty hits
system.l2.WritebackDirty_hits::total          2631237                       # number of WritebackDirty hits
system.l2.WritebackDirty_accesses::.writebacks      2631237                       # number of WritebackDirty accesses(hits+misses)
system.l2.WritebackDirty_accesses::total      2631237                       # number of WritebackDirty accesses(hits+misses)
system.l2.WritebackClean_hits::.writebacks          220                       # number of WritebackClean hits
system.l2.WritebackClean_hits::total              220                       # number of WritebackClean hits
system.l2.WritebackClean_accesses::.writebacks          220                       # number of WritebackClean accesses(hits+misses)
system.l2.WritebackClean_accesses::total          220                       # number of WritebackClean accesses(hits+misses)
system.l2.ReadExReq_hits::.cpu.data               110                       # number of ReadExReq hits
system.l2.ReadExReq_hits::total                   110                       # number of ReadExReq hits
system.l2.ReadExReq_misses::.cpu.data         2631607                       # number of ReadExReq misses
system.l2.ReadExReq_misses::total             2631607                       # number of ReadExReq misses
system.l2.ReadExReq_miss_latency::.cpu.data 299685425000                       # number of ReadExReq miss cycles
system.l2.ReadExReq_miss_latency::total  299685425000                       # number of ReadExReq miss cycles
system.l2.ReadExReq_accesses::.cpu.data       2631717                       # number of ReadExReq accesses(hits+misses)
system.l2.ReadExReq_accesses::total           2631717                       # number of ReadExReq accesses(hits+misses)
system.l2.ReadExReq_miss_rate::.cpu.data     0.999958                       # miss rate for ReadExReq accesses
system.l2.ReadExReq_miss_rate::total         0.999958                       # miss rate for ReadExReq accesses
system.l2.ReadExReq_avg_miss_latency::.cpu.data 113879.247547                       # average ReadExReq miss latency
system.l2.ReadExReq_avg_miss_latency::total 113879.247547                       # average ReadExReq miss latency
system.l2.ReadExReq_mshr_misses::.cpu.data      2631607                       # number of ReadExReq MSHR misses
system.l2.ReadExReq_mshr_misses::total        2631607                       # number of ReadExReq MSHR misses
system.l2.ReadExReq_mshr_miss_latency::.cpu.data 247053285000                       # number of ReadExReq MSHR miss cycles
system.l2.ReadExReq_mshr_miss_latency::total 247053285000                       # number of ReadExReq MSHR miss cycles
system.l2.ReadExReq_mshr_miss_rate::.cpu.data     0.999958                       # mshr miss rate for ReadExReq accesses
system.l2.ReadExReq_mshr_miss_rate::total     0.999958                       # mshr miss rate for ReadExReq accesses
system.l2.ReadExReq_avg_mshr_miss_latency::.cpu.data 93879.247547                       # average ReadExReq mshr miss latency
system.l2.ReadExReq_avg_mshr_miss_latency::total 93879.247547                       # average ReadExReq mshr miss latency
system.l2.ReadCleanReq_hits::.cpu.inst             82                       # number of ReadCleanReq hits
system.l2.ReadCleanReq_hits::total                 82                       # number of ReadCleanReq hits
system.l2.ReadCleanReq_misses::.cpu.inst          391                       # number of ReadCleanReq misses
system.l2.ReadCleanReq_misses::total              391                       # number of ReadCleanReq misses
system.l2.ReadCleanReq_miss_latency::.cpu.inst     42840000                       # number of ReadCleanReq miss cycles
system.l2.ReadCleanReq_miss_latency::total     42840000                       # number of ReadCleanReq miss cycles
system.l2.ReadCleanReq_accesses::.cpu.inst          473                       # number of ReadCleanReq accesses(hits+misses)
system.l2.ReadCleanReq_accesses::total            473                       # number of ReadCleanReq accesses(hits+misses)
system.l2.ReadCleanReq_miss_rate::.cpu.inst     0.826638                       # miss rate for ReadCleanReq accesses
system.l2.ReadCleanReq_miss_rate::total      0.826638                       # miss rate for ReadCleanReq accesses
system.l2.ReadCleanReq_avg_miss_latency::.cpu.inst 109565.217391                       # average ReadCleanReq miss latency
system.l2.ReadCleanReq_avg_miss_latency::total 109565.217391                       # average ReadCleanReq miss latency
system.l2.ReadCleanReq_mshr_hits::.cpu.inst            1                       # number of ReadCleanReq MSHR hits
system.l2.ReadCleanReq_mshr_hits::total             1                       # number of ReadCleanReq MSHR hits
system.l2.ReadCleanReq_mshr_misses::.cpu.inst          390                       # number of ReadCleanReq MSHR misses
system.l2.ReadCleanReq_mshr_misses::total          390                       # number of ReadCleanReq MSHR misses
system.l2.ReadCleanReq_mshr_miss_latency::.cpu.inst     34946000                       # number of ReadCleanReq MSHR miss cycles
system.l2.ReadCleanReq_mshr_miss_latency::total     34946000                       # number of ReadCleanReq MSHR miss cycles
system.l2.ReadCleanReq_mshr_miss_rate::.cpu.inst     0.824524                       # mshr miss rate for ReadCleanReq accesses
system.l2.ReadCleanReq_mshr_miss_rate::total     0.824524                       # mshr miss rate for ReadCleanReq accesses
system.l2.ReadCleanReq_avg_mshr_miss_latency::.cpu.inst 89605.128205                       # average ReadCleanReq mshr miss latency
system.l2.ReadCleanReq_avg_mshr_miss_latency::total 89605.128205                       # average ReadCleanReq mshr miss latency
system.l2.ReadSharedReq_hits::.cpu.data           144                       # number of ReadSharedReq hits
system.l2.ReadSharedReq_hits::total               144                       # number of ReadSharedReq hits
system.l2.ReadSharedReq_misses::.cpu.data          206                       # number of ReadSharedReq misses
system.l2.ReadSharedReq_misses::total             206                       # number of ReadSharedReq misses
system.l2.ReadSharedReq_miss_latency::.cpu.data     23419000                       # number of ReadSharedReq miss cycles
system.l2.ReadSharedReq_miss_latency::total     23419000                       # number of ReadSharedReq miss cycles
system.l2.ReadSharedReq_accesses::.cpu.data          350                       # number of ReadSharedReq accesses(hits+misses)
system.l2.ReadSharedReq_accesses::total           350                       # number of ReadSharedReq accesses(hits+misses)
system.l2.ReadSharedReq_miss_rate::.cpu.data     0.588571                       # miss rate for ReadSharedReq accesses
system.l2.ReadSharedReq_miss_rate::total     0.588571                       # miss rate for ReadSharedReq accesses
system.l2.ReadSharedReq_avg_miss_latency::.cpu.data 113684.466019                       # average ReadSharedReq miss latency
system.l2.ReadSharedReq_avg_miss_latency::total 113684.466019                       # average ReadSharedReq miss latency
system.l2.ReadSharedReq_mshr_hits::.cpu.data            8                       # number of ReadSharedReq MSHR hits
system.l2.ReadSharedReq_mshr_hits::total            8                       # number of ReadSharedReq MSHR hits
system.l2.ReadSharedReq_mshr_misses::.cpu.data          198                       # number of ReadSharedReq MSHR misses
system.l2.ReadSharedReq_mshr_misses::total          198                       # number of ReadSharedReq MSHR misses
system.l2.ReadSharedReq_mshr_miss_latency::.cpu.data     18814000                       # number of ReadSharedReq MSHR miss cycles
system.l2.ReadSharedReq_mshr_miss_latency::total     18814000                       # number of ReadSharedReq MSHR miss cycles
system.l2.ReadSharedReq_mshr_miss_rate::.cpu.data     0.565714                       # mshr miss rate for ReadSharedReq accesses
system.l2.ReadSharedReq_mshr_miss_rate::total     0.565714                       # mshr miss rate for ReadSharedReq accesses
system.l2.ReadSharedReq_avg_mshr_miss_latency::.cpu.data 95020.202020                       # average ReadSharedReq mshr miss latency
system.l2.ReadSharedReq_avg_mshr_miss_latency::total 95020.202020                       # average ReadSharedReq mshr miss latency
system.l2.tags.pwrStateResidencyTicks::UNDEFINED 497467421000                       # Cumulative time (in ticks) in various power states
system.l2.tags.tagsinuse                 16167.953664                       # Cycle average of tags in use
system.l2.tags.total_refs                     5264257                       # Total number of references to valid blocks.
system.l2.tags.sampled_refs                   2632278                       # Sample count of references to valid blocks.
system.l2.tags.avg_refs                      1.999886                       # Average number of references to valid blocks.
system.l2.tags.warmup_cycle                     92000                       # Cycle when the warmup percentage was hit.
system.l2.tags.occ_blocks::.writebacks       0.470147                       # Average occupied blocks per requestor
system.l2.tags.occ_blocks::.cpu.inst         4.854921                       # Average occupied blocks per requestor
system.l2.tags.occ_blocks::.cpu.data     16162.628596                       # Average occupied blocks per requestor
system.l2.tags.occ_percent::.writebacks      0.000029                       # Average percentage of cache occupancy
system.l2.tags.occ_percent::.cpu.inst        0.000296                       # Average percentage of cache occupancy
system.l2.tags.occ_percent::.cpu.data        0.986489                       # Average percentage of cache occupancy
system.l2.tags.occ_percent::total            0.986814                       # Average percentage of cache occupancy
system.l2.tags.occ_task_id_blocks::1024         16384                       # Occupied blocks per task id
system.l2.tags.age_task_id_blocks_1024::0           53                       # Occupied blocks per task id
system.l2.tags.age_task_id_blocks_1024::1          479                       # Occupied blocks per task id
system.l2.tags.age_task_id_blocks_1024::2         4818                       # Occupied blocks per task id
system.l2.tags.age_task_id_blocks_1024::3        11034                       # Occupied blocks per task id
system.l2.tags.occ_task_id_percent::1024            1                       # Percentage of cache occupancy per task id
system.l2.tags.tag_accesses                  44746406                       # Number of tag accesses
system.l2.tags.data_accesses                 44746406                       # Number of data accesses
system.cpu_voltage_domain.voltage                   1                       # Voltage in Volts
system.mem_ctrls.pwrStateResidencyTicks::UNDEFINED 497467421000                       # Cumulative time (in ticks) in various power states
system.mem_ctrls.bytes_read::.cpu.inst          49920                       # Number of bytes read from this memory
system.mem_ctrls.bytes_read::.cpu.data      336871040                       # Number of bytes read from this memory
system.mem_ctrls.bytes_read::total          336920960                       # Number of bytes read from this memory
system.mem_ctrls.bytes_inst_read::.cpu.inst        49920                       # Number of instructions bytes read from this memory
system.mem_ctrls.bytes_inst_read::total         49920                       # Number of instructions bytes read from this memory
system.mem_ctrls.bytes_written::.writebacks    334751360                       # Number of bytes written to this memory
system.mem_ctrls.bytes_written::total       334751360                       # Number of bytes written to this memory
system.mem_ctrls.num_reads::.cpu.inst             390                       # Number of read requests responded to by this memory
system.mem_ctrls.num_reads::.cpu.data         2631805                       # Number of read requests responded to by this memory
system.mem_ctrls.num_reads::total             2632195                       # Number of read requests responded to by this memory
system.mem_ctrls.num_writes::.writebacks      2615245                       # Number of write requests responded to by this memory
system.mem_ctrls.num_writes::total            2615245                       # Number of write requests responded to by this memory
system.mem_ctrls.bw_read::.cpu.inst            100348                       # Total read bandwidth from this memory (bytes/s)
system.mem_ctrls.bw_read::.cpu.data         677172063                       # Total read bandwidth from this memory (bytes/s)
system.mem_ctrls.bw_read::total             677272412                       # Total read bandwidth from this memory (bytes/s)
system.mem_ctrls.bw_inst_read::.cpu.inst       100348                       # Instruction read bandwidth from this memory (bytes/s)
system.mem_ctrls.bw_inst_read::total           100348                       # Instruction read bandwidth from this memory (bytes/s)
system.mem_ctrls.bw_write::.writebacks      672911121                       # Write bandwidth from this memory (bytes/s)
system.mem_ctrls.bw_write::total            672911121                       # Write bandwidth from this memory (bytes/s)
system.mem_ctrls.bw_total::.writebacks      672911121                       # Total bandwidth to/from this memory (bytes/s)
system.mem_ctrls.bw_total::.cpu.inst           100348                       # Total bandwidth to/from this memory (bytes/s)
system.mem_ctrls.bw_total::.cpu.data        677172063                       # Total bandwidth to/from this memory (bytes/s)
system.mem_ctrls.bw_total::total           1350183533                       # Total bandwidth to/from this memory (bytes/s)
system.mem_ctrls.avgPriority_.writebacks::samples   5230490.00                       # Average QoS priority value for accepted requests
system.mem_ctrls.avgPriority_.cpu.inst::samples       780.00                       # Average QoS priority value for accepted requests
system.mem_ctrls.avgPriority_.cpu.data::samples   5263610.00                       # Average QoS priority value for accepted requests
system.mem_ctrls.priorityMinLatency      0.000000018750                       # per QoS priority minimum request to response latency (s)
system.mem_ctrls.priorityMaxLatency      0.000712642500                       # per QoS priority maximum request to response latency (s)
system.mem_ctrls.numReadWriteTurnArounds       290883                       # Number of turnarounds from READ to WRITE
system.mem_ctrls.numWriteReadTurnArounds       290883                       # Number of turnarounds from WRITE to READ
system.mem_ctrls.numStayReadState            10414186                       # Number of times bus staying in READ state
system.mem_ctrls.numStayWriteState            4950457                       # Number of times bus staying in WRITE state
system.mem_ctrls.readReqs                     2632195                       # Number of read requests accepted
system.mem_ctrls.writeReqs                    2615245                       # Number of write requests accepted
system.mem_ctrls.readBursts                   5264390                       # Number of DRAM read bursts, including those serviced by the write queue
system.mem_ctrls.writeBursts                  5230490                       # Number of DRAM write bursts, including those merged in the write queue
system.mem_ctrls.servicedByWrQ                      0                       # Number of DRAM read bursts serviced by the write queue
system.mem_ctrls.mergedWrBursts                     0                       # Number of DRAM write bursts merged with an existing one
system.mem_ctrls.neitherReadNorWriteReqs            0                       # Number of requests that are neither read nor write
system.mem_ctrls.perBankRdBursts::0            329082                       # Per bank write bursts
system.mem_ctrls.perBankRdBursts::1            329098                       # Per bank write bursts
system.mem_ctrls.perBankRdBursts::2            329140                       # Per bank write bursts
system.mem_ctrls.perBankRdBursts::3            329102                       # Per bank write bursts
system.mem_ctrls.perBankRdBursts::4            329036                       # Per bank write bursts
system.mem_ctrls.perBankRdBursts::5            329094                       # Per bank write bursts
system.mem_ctrls.perBankRdBursts::6            329110                       # Per bank write bursts
system.mem_ctrls.perBankRdBursts::7            328954                       # Per bank write bursts
system.mem_ctrls.perBankRdBursts::8            328912                       # Per bank write bursts
system.mem_ctrls.perBankRdBursts::9            328892                       # Per bank write bursts
system.mem_ctrls.perBankRdBursts::10           328858                       # Per bank write bursts
system.mem_ctrls.perBankRdBursts::11           329064                       # Per bank write bursts
system.mem_ctrls.perBankRdBursts::12           329058                       # Per bank write bursts
system.mem_ctrls.perBankRdBursts::13           329056                       # Per bank write bursts
system.mem_ctrls.perBankRdBursts::14           329036                       # Per bank write bursts
system.mem_ctrls.perBankRdBursts::15           328898                       # Per bank write bursts
system.mem_ctrls.perBankWrBursts::0            326870                       # Per bank write bursts
system.mem_ctrls.perBankWrBursts::1            326937                       # Per bank write bursts
system.mem_ctrls.perBankWrBursts::2            327034                       # Per bank write bursts
system.mem_ctrls.perBankWrBursts::3            327010                       # Per bank write bursts
system.mem_ctrls.perBankWrBursts::4            326978                       # Per bank write bursts
system.mem_ctrls.perBankWrBursts::5            326986                       # Per bank write bursts
system.mem_ctrls.perBankWrBursts::6            326998                       # Per bank write bursts
system.mem_ctrls.perBankWrBursts::7            326880                       # Per bank write bursts
system.mem_ctrls.perBankWrBursts::8            326784                       # Per bank write bursts
system.mem_ctrls.perBankWrBursts::9            326784                       # Per bank write bursts
system.mem_ctrls.perBankWrBursts::10           326716                       # Per bank write bursts
system.mem_ctrls.perBankWrBursts::11           326944                       # Per bank write bursts
system.mem_ctrls.perBankWrBursts::12           326942                       # Per bank write bursts
system.mem_ctrls.perBankWrBursts::13           326926                       # Per bank write bursts
system.mem_ctrls.perBankWrBursts::14           326866                       # Per bank write bursts
system.mem_ctrls.perBankWrBursts::15           326810                       # Per bank write bursts
system.mem_ctrls.avgRdQLen                       2.00                       # Average read queue length when enqueuing
system.mem_ctrls.avgWrQLen                      25.21                       # Average write queue length when enqueuing
system.mem_ctrls.totQLat                 111899622750                       # Total ticks spent queuing
system.mem_ctrls.totBusLat                26321950000                       # Total ticks spent in databus transfers
system.mem_ctrls.totMemAccLat            210606935250                       # Total ticks spent from burst creation until serviced by the DRAM
system.mem_ctrls.avgQLat                     21255.95                       # Average queueing delay per DRAM burst
system.mem_ctrls.avgBusLat                    5000.00                       # Average bus latency per DRAM burst
system.mem_ctrls.avgMemAccLat                40005.95                       # Average memory access latency per DRAM burst
system.mem_ctrls.numRdRetry                         0                       # Number of times read queue was full causing retry
system.mem_ctrls.numWrRetry                         0                       # Number of times write queue was full causing retry
system.mem_ctrls.readRowHits                  4675034                       # Number of row buffer hits during reads
system.mem_ctrls.writeRowHits                 4647865                       # Number of row buffer hits during writes
system.mem_ctrls.readRowHitRate                 88.80                       # Row buffer hit rate for reads
system.mem_ctrls.writeRowHitRate                88.86                       # Row buffer hit rate for writes
system.mem_ctrls.readPktSize::0                     0                       # Read request sizes (log2)
system.mem_ctrls.readPktSize::1                     0                       # Read request sizes (log2)
system.mem_ctrls.readPktSize::2                     0                       # Read request sizes (log2)
system.mem_ctrls.readPktSize::3                     0                       # Read request sizes (log2)
system.mem_ctrls.readPktSize::4                     0                       # Read request sizes (log2)
system.mem_ctrls.readPktSize::5                     0                       # Read request sizes (log2)
system.mem_ctrls.readPktSize::6               5264390                       # Read request sizes (log2)
system.mem_ctrls.writePktSize::0                    0                       # Write request sizes (log2)
system.mem_ctrls.writePktSize::1                    0                       # Write request sizes (log2)
system.mem_ctrls.writePktSize::2                    0                       # Write request sizes (log2)
system.mem_ctrls.writePktSize::3                    0                       # Write request sizes (log2)
system.mem_ctrls.writePktSize::4                    0                       # Write request sizes (log2)
system.mem_ctrls.writePktSize::5                    0                       # Write request sizes (log2)
system.mem_ctrls.writePktSize::6              5230490                       # Write request sizes (log2)
system.mem_ctrls.rdQLenPdf::0                 2632020                       # What read queue length does an incoming req see
system.mem_ctrls.rdQLenPdf::1                 2632022                       # What read queue length does an incoming req see
system.mem_ctrls.rdQLenPdf::2                     164                       # What read queue length does an incoming req see
system.mem_ctrls.rdQLenPdf::3                     162                       # What read queue length does an incoming req see
system.mem_ctrls.rdQLenPdf::4                      11                       # What read queue length does an incoming req see
system.mem_ctrls.rdQLenPdf::5                      11                       # What read queue length does an incoming req see
system.mem_ctrls.rdQLenPdf::6                       0                       # What read queue length does an incoming req see
system.mem_ctrls.rdQLenPdf::7                       0                       # What read queue length does an incoming req see
system.mem_ctrls.rdQLenPdf::8                       0                       # What read queue length does an incoming req see
system.mem_ctrls.rdQLenPdf::9                       0                       # What read queue length does an incoming req see
system.mem_ctrls.rdQLenPdf::10                      0                       # What read queue length does an incoming req see
system.mem_ctrls.rdQLenPdf::11                      0                       # What read queue length does an incoming req see
system.mem_ctrls.rdQLenPdf::12                      0                       # What read queue length does an incoming req see
system.mem_ctrls.rdQLenPdf::13                      0                       # What read queue length does an incoming req see
system.mem_ctrls.rdQLenPdf::14                      0                       # What read queue length does an incoming req see
system.mem_ctrls.rdQLenPdf::15                      0                       # What read queue length does an incoming req see
system.mem_ctrls.rdQLenPdf::16                      0                       # What read queue length does an incoming req see
system.mem_ctrls.rdQLenPdf::17                      0                       # What read queue length does an incoming req see
system.mem_ctrls.rdQLenPdf::18                      0                       # What read queue length does an incoming req see
system.mem_ctrls.rdQLenPdf::19                      0                       # What read queue length does an incoming req see
system.mem_ctrls.rdQLenPdf::20                      0                       # What read queue length does an incoming req see
system.mem_ctrls.rdQLenPdf::21                      0                       # What read queue length does an incoming req see
system.mem_ctrls.rdQLenPdf::22                      0                       # What read queue length does an incoming req see
system.mem_ctrls.rdQLenPdf::23                      0                       # What read queue length does an incoming req see
system.mem_ctrls.rdQLenPdf::24                      0                       # What read queue length does an incoming req see
system.mem_ctrls.rdQLenPdf::25                      0                       # What read queue length does an incoming req see
system.mem_ctrls.rdQLenPdf::26                      0                       # What read queue length does an incoming req see
system.mem_ctrls.rdQLenPdf::27                      0                       # What read queue length does an incoming req see
system.mem_ctrls.rdQLenPdf::28                      0                       # What read queue length does an incoming req see
system.mem_ctrls.rdQLenPdf::29                      0                       # What read queue length does an incoming req see
system.mem_ctrls.rdQLenPdf::30                      0                       # What read queue length does an incoming req see
system.mem_ctrls.rdQLenPdf::31                      0                       # What read queue length does an incoming req see
system.mem_ctrls.wrQLenPdf::0                       1                       # What write queue length does an incoming req see
system.mem_ctrls.wrQLenPdf::1                       1                       # What write queue length does an incoming req see
system.mem_ctrls.wrQLenPdf::2                       1                       # What write queue length does an incoming req see
system.mem_ctrls.wrQLenPdf::3                       1                       # What write queue length does an incoming req see
system.mem_ctrls.wrQLenPdf::4                       1                       # What write queue length does an incoming req see
system.mem_ctrls.wrQLenPdf::5                       1                       # What write queue length does an incoming req see
system.mem_ctrls.wrQLenPdf::6                       1                       # What write queue length does an incoming req see
system.mem_ctrls.wrQLenPdf::7                       1                       # What write queue length does an incoming req see
system.mem_ctrls.wrQLenPdf::8                       1                       # What write queue length does an incoming req see
system.mem_ctrls.wrQLenPdf::9                       1                       # What write queue length does an incoming req see
system.mem_ctrls.wrQLenPdf::10                      1                       # What write queue length does an incoming req see
system.mem_ctrls.wrQLenPdf::11                      1                       # What write queue length does an incoming req see
system.mem_ctrls.wrQLenPdf::12                      1                       # What write queue length does an incoming req see
system.mem_ctrls.wrQLenPdf::13                      1                       # What write queue length does an incoming req see
system.mem_ctrls.wrQLenPdf::14                      1                       # What write queue length does an incoming req see
system.mem_ctrls.wrQLenPdf::15                 287126                       # What write queue length does an incoming req see
system.mem_ctrls.wrQLenPdf::16                 287261                       # What write queue length does an incoming req see
system.mem_ctrls.wrQLenPdf::17                 291157                       # What write queue length does an incoming req see
system.mem_ctrls.wrQLenPdf::18                 291166                       # What write queue length does an incoming req see
system.mem_ctrls.wrQLenPdf::19                 290886                       # What write queue length does an incoming req see
system.mem_ctrls.wrQLenPdf::20                 290892                       # What write queue length does an incoming req see
system.mem_ctrls.wrQLenPdf::21                 290891                       # What write queue length does an incoming req see
system.mem_ctrls.wrQLenPdf::22                 291489                       # What write queue length does an incoming req see
system.mem_ctrls.wrQLenPdf::23                 291488                       # What write queue length does an incoming req see
system.mem_ctrls.wrQLenPdf::24                 290889                       # What write queue length does an incoming req see
system.mem_ctrls.wrQLenPdf::25                 290887                       # What write queue length does an incoming req see
system.mem_ctrls.wrQLenPdf::26                 290885                       # What write queue length does an incoming req see
system.mem_ctrls.wrQLenPdf::27                 290888                       # What write queue length does an incoming req see
system.mem_ctrls.wrQLenPdf::28                 290888                       # What write queue length does an incoming req see
system.mem_ctrls.wrQLenPdf::29                 290885                       # What write queue length does an incoming req see
system.mem_ctrls.wrQLenPdf::30                 290884                       # What write queue length does an incoming req see
system.mem_ctrls.wrQLenPdf::31                 290883                       # What write queue length does an incoming req see
system.mem_ctrls.wrQLenPdf::32                 290883                       # What write queue length does an incoming req see
system.mem_ctrls.wrQLenPdf::33                    147                       # What write queue length does an incoming req see
system.mem_ctrls.wrQLenPdf::34                      0                       # What write queue length does an incoming req see
system.mem_ctrls.wrQLenPdf::35                      0                       # What write queue length does an incoming req see
system.mem_ctrls.wrQLenPdf::36                      0                       # What write queue length does an incoming req see
system.mem_ctrls.wrQLenPdf::37                      0                       # What write queue length does an incoming req see
system.mem_ctrls.wrQLenPdf::38                      0                       # What write queue length does an incoming req see
system.mem_ctrls.wrQLenPdf::39                      0                       # What write queue length does an incoming req see
system.mem_ctrls.wrQLenPdf::40                      0                       # What write queue length does an incoming req see
system.mem_ctrls.wrQLenPdf::41                      0                       # What write queue length does an incoming req see
system.mem_ctrls.wrQLenPdf::42                      0                       # What write queue length does an incoming req see
system.mem_ctrls.wrQLenPdf::43                      0                       # What write queue length does an incoming req see
system.mem_ctrls.wrQLenPdf::44                      0                       # What write queue length does an incoming req see
system.mem_ctrls.wrQLenPdf::45                      0                       # What write queue length does an incoming req see
system.mem_ctrls.wrQLenPdf::46                      0                       # What write queue length does an incoming req see
system.mem_ctrls.wrQLenPdf::47                      0                       # What write queue length does an incoming req see
system.mem_ctrls.wrQLenPdf::48                      0                       # What write queue length does an incoming req see
system.mem_ctrls.wrQLenPdf::49                      0                       # What write queue length does an incoming req see
system.mem_ctrls.wrQLenPdf::50                      0                       # What write queue length does an incoming req see
system.mem_ctrls.wrQLenPdf::51                      0                       # What write queue length does an incoming req see
system.mem_ctrls.wrQLenPdf::52                      0                       # What write queue length does an incoming req see
system.mem_ctrls.wrQLenPdf::53                      0                       # What write queue length does an incoming req see
system.mem_ctrls.wrQLenPdf::54                      0                       # What write queue length does an incoming req see
system.mem_ctrls.wrQLenPdf::55                      0                       # What write queue length does an incoming req see
system.mem_ctrls.wrQLenPdf::56                      0                       # What write queue length does an incoming req see
system.mem_ctrls.wrQLenPdf::57                      0                       # What write queue length does an incoming req see
system.mem_ctrls.wrQLenPdf::58                      0                       # What write queue length does an incoming req see
system.mem_ctrls.wrQLenPdf::59                      0                       # What write queue length does an incoming req see
system.mem_ctrls.wrQLenPdf::60                      0                       # What write queue length does an incoming req see
system.mem_ctrls.wrQLenPdf::61                      0                       # What write queue length does an incoming req see
system.mem_ctrls.wrQLenPdf::62                      0                       # What write queue length does an incoming req see
system.mem_ctrls.wrQLenPdf::63                      0                       # What write queue length does an incoming req see
system.mem_ctrls.bytesPerActivate::samples      1171955                       # Bytes accessed per row activation
system.mem_ctrls.bytesPerActivate::mean    573.119343                       # Bytes accessed per row activation
system.mem_ctrls.bytesPerActivate::gmean   380.942361                       # Bytes accessed per row activation
system.mem_ctrls.bytesPerActivate::stdev   419.491811                       # Bytes accessed per row activation
system.mem_ctrls.bytesPerActivate::0-127        17356      1.48%      1.48% # Bytes accessed per row activation
system.mem_ctrls.bytesPerActivate::128-255       474820     40.52%     42.00% # Bytes accessed per row activation
system.mem_ctrls.bytesPerActivate::256-383        39498      3.37%     45.37% # Bytes accessed per row activation
system.mem_ctrls.bytesPerActivate::384-511        33544      2.86%     48.23% # Bytes accessed per row activation
system.mem_ctrls.bytesPerActivate::512-639        29106      2.48%     50.71% # Bytes accessed per row activation
system.mem_ctrls.bytesPerActivate::640-767        29563      2.52%     53.23% # Bytes accessed per row activation
system.mem_ctrls.bytesPerActivate::768-895        34057      2.91%     56.14% # Bytes accessed per row activation
system.mem_ctrls.bytesPerActivate::896-1023        32638      2.78%     58.93% # Bytes accessed per row activation
system.mem_ctrls.bytesPerActivate::1024-1151       481373     41.07%    100.00% # Bytes accessed per row activation
system.mem_ctrls.bytesPerActivate::total      1171955                       # Bytes accessed per row activation
system.mem_ctrls.rdPerTurnAround::samples       290883                       # Reads before turning the bus around for writes
system.mem_ctrls.rdPerTurnAround::mean      18.097929                       # Reads before turning the bus around for writes
system.mem_ctrls.rdPerTurnAround::gmean     17.982637                       # Reads before turning the bus around for writes
system.mem_ctrls.rdPerTurnAround::stdev     53.300012                       # Reads before turning the bus around for writes
system.mem_ctrls.rdPerTurnAround::0-1023       290882    100.00%    100.00% # Reads before turning the bus around for writes
system.mem_ctrls.rdPerTurnAround::28672-29695            1      0.00%    100.00% # Reads before turning the bus around for writes
system.mem_ctrls.rdPerTurnAround::total        290883                       # Reads before turning the bus around for writes
system.mem_ctrls.wrPerTurnAround::samples       290883                       # Writes before turning the bus around for reads
system.mem_ctrls.wrPerTurnAround::mean      17.981336                       # Writes before turning the bus around for reads
system.mem_ctrls.wrPerTurnAround::gmean     17.979513                       # Writes before turning the bus around for reads
[...]
system.cpu.icache.ReadReq_miss_rate::.cpu.inst     0.000015                       # miss rate for ReadReq accesses
system.cpu.icache.ReadReq_miss_rate::total     0.000015                       # miss rate for ReadReq accesses
system.cpu.icache.ReadReq_avg_miss_latency::.cpu.inst 99543.340381                       # average ReadReq miss latency
system.cpu.icache.ReadReq_avg_miss_latency::total 99543.340381                       # average ReadReq miss latency
system.cpu.icache.ReadReq_mshr_misses::.cpu.inst          473                       # number of ReadReq MSHR misses
system.cpu.icache.ReadReq_mshr_misses::total          473                       # number of ReadReq MSHR misses
system.cpu.icache.ReadReq_mshr_miss_latency::.cpu.inst     46138000                       # number of ReadReq MSHR miss cycles
system.cpu.icache.ReadReq_mshr_miss_latency::total     46138000                       # number of ReadReq MSHR miss cycles
system.cpu.icache.ReadReq_mshr_miss_rate::.cpu.inst     0.000015                       # mshr miss rate for ReadReq accesses
system.cpu.icache.ReadReq_mshr_miss_rate::total     0.000015                       # mshr miss rate for ReadReq accesses
system.cpu.icache.ReadReq_avg_mshr_miss_latency::.cpu.inst 97543.340381                       # average ReadReq mshr miss latency
system.cpu.icache.ReadReq_avg_mshr_miss_latency::total 97543.340381                       # average ReadReq mshr miss latency
system.cpu.icache.tags.pwrStateResidencyTicks::UNDEFINED 497467421000                       # Cumulative time (in ticks) in various power states
system.cpu.icache.tags.tagsinuse           225.696041                       # Cycle average of tags in use
system.cpu.icache.tags.total_refs            31780311                       # Total number of references to valid blocks.
system.cpu.icache.tags.sampled_refs               473                       # Sample count of references to valid blocks.
system.cpu.icache.tags.avg_refs          67188.818182                       # Average number of references to valid blocks.
system.cpu.icache.tags.warmup_cycle            113000                       # Cycle when the warmup percentage was hit.
system.cpu.icache.tags.occ_blocks::.cpu.inst   225.696041                       # Average occupied blocks per requestor
system.cpu.icache.tags.occ_percent::.cpu.inst     0.881625                       # Average percentage of cache occupancy
system.cpu.icache.tags.occ_percent::total     0.881625                       # Average percentage of cache occupancy
system.cpu.icache.tags.occ_task_id_blocks::1024          242                       # Occupied blocks per task id
system.cpu.icache.tags.age_task_id_blocks_1024::4          242                       # Occupied blocks per task id
system.cpu.icache.tags.occ_task_id_percent::1024     0.945312                       # Percentage of cache occupancy per task id
system.cpu.icache.tags.tag_accesses          63561095                       # Number of tag accesses
system.cpu.icache.tags.data_accesses         63561095                       # Number of data accesses
system.cpu.dtb.walker.pwrStateResidencyTicks::UNDEFINED 497467421000                       # Cumulative time (in ticks) in various power states
system.cpu.dtb.stage2_mmu.stage2_tlb.walker.pwrStateResidencyTicks::UNDEFINED 497467421000                       # Cumulative time (in ticks) in various power states
system.cpu.dcache.pwrStateResidencyTicks::UNDEFINED 497467421000                       # Cumulative time (in ticks) in various power states
system.cpu.dcache.demand_hits::.cpu.data     81118294                       # number of demand (read+write) hits
system.cpu.dcache.demand_hits::total         81118294                       # number of demand (read+write) hits
system.cpu.dcache.overall_hits::.cpu.data     81118337                       # number of overall hits
system.cpu.dcache.overall_hits::total        81118337                       # number of overall hits
system.cpu.dcache.demand_misses::.cpu.data      5262287                       # number of demand (read+write) misses
system.cpu.dcache.demand_misses::total        5262287                       # number of demand (read+write) misses
system.cpu.dcache.overall_misses::.cpu.data      5262315                       # number of overall misses
system.cpu.dcache.overall_misses::total       5262315                       # number of overall misses
system.cpu.dcache.demand_miss_latency::.cpu.data 633440895000                       # number of demand (read+write) miss cycles
system.cpu.dcache.demand_miss_latency::total 633440895000                       # number of demand (read+write) miss cycles
system.cpu.dcache.overall_miss_latency::.cpu.data 633440895000                       # number of overall miss cycles
system.cpu.dcache.overall_miss_latency::total 633440895000                       # number of overall miss cycles
system.cpu.dcache.demand_accesses::.cpu.data     86380581                       # number of demand (read+write) accesses
system.cpu.dcache.demand_accesses::total     86380581                       # number of demand (read+write) accesses
system.cpu.dcache.overall_accesses::.cpu.data     86380652                       # number of overall (read+write) accesses
system.cpu.dcache.overall_accesses::total     86380652                       # number of overall (read+write) accesses
system.cpu.dcache.demand_miss_rate::.cpu.data     0.060920                       # miss rate for demand accesses
system.cpu.dcache.demand_miss_rate::total     0.060920                       # miss rate for demand accesses
system.cpu.dcache.overall_miss_rate::.cpu.data     0.060920                       # miss rate for overall accesses
system.cpu.dcache.overall_miss_rate::total     0.060920                       # miss rate for overall accesses
system.cpu.dcache.demand_avg_miss_latency::.cpu.data 120373.688284                       # average overall miss latency
system.cpu.dcache.demand_avg_miss_latency::total 120373.688284                       # average overall miss latency
system.cpu.dcache.overall_avg_miss_latency::.cpu.data 120373.047794                       # average overall miss latency
system.cpu.dcache.overall_avg_miss_latency::total 120373.047794                       # average overall miss latency
system.cpu.dcache.blocked_cycles::no_mshrs            0                       # number of cycles access was blocked
system.cpu.dcache.blocked_cycles::no_targets            0                       # number of cycles access was blocked
system.cpu.dcache.blocked::no_mshrs                 0                       # number of cycles access was blocked
system.cpu.dcache.blocked::no_targets               0                       # number of cycles access was blocked
system.cpu.dcache.avg_blocked_cycles::no_mshrs          nan                       # average number of cycles each access was blocked
system.cpu.dcache.avg_blocked_cycles::no_targets          nan                       # average number of cycles each access was blocked
system.cpu.dcache.writebacks::.writebacks      2631237                       # number of writebacks
system.cpu.dcache.writebacks::total           2631237                       # number of writebacks
system.cpu.dcache.demand_mshr_hits::.cpu.data      2630239                       # number of demand (read+write) MSHR hits
system.cpu.dcache.demand_mshr_hits::total      2630239                       # number of demand (read+write) MSHR hits
system.cpu.dcache.overall_mshr_hits::.cpu.data      2630239                       # number of overall MSHR hits
system.cpu.dcache.overall_mshr_hits::total      2630239                       # number of overall MSHR hits
system.cpu.dcache.demand_mshr_misses::.cpu.data      2632048                       # number of demand (read+write) MSHR misses
system.cpu.dcache.demand_mshr_misses::total      2632048                       # number of demand (read+write) MSHR misses
system.cpu.dcache.overall_mshr_misses::.cpu.data      2632067                       # number of overall MSHR misses
system.cpu.dcache.overall_mshr_misses::total      2632067                       # number of overall MSHR misses
system.cpu.dcache.demand_mshr_miss_latency::.cpu.data 307608531000                       # number of demand (read+write) MSHR miss cycles
system.cpu.dcache.demand_mshr_miss_latency::total 307608531000                       # number of demand (read+write) MSHR miss cycles
system.cpu.dcache.overall_mshr_miss_latency::.cpu.data 307610519000                       # number of overall MSHR miss cycles
system.cpu.dcache.overall_mshr_miss_latency::total 307610519000                       # number of overall MSHR miss cycles
system.cpu.dcache.demand_mshr_miss_rate::.cpu.data     0.030470                       # mshr miss rate for demand accesses
system.cpu.dcache.demand_mshr_miss_rate::total     0.030470                       # mshr miss rate for demand accesses
system.cpu.dcache.overall_mshr_miss_rate::.cpu.data     0.030471                       # mshr miss rate for overall accesses
system.cpu.dcache.overall_mshr_miss_rate::total     0.030471                       # mshr miss rate for overall accesses
system.cpu.dcache.demand_avg_mshr_miss_latency::.cpu.data 116870.410798                       # average overall mshr miss latency
system.cpu.dcache.demand_avg_mshr_miss_latency::total 116870.410798                       # average overall mshr miss latency
system.cpu.dcache.overall_avg_mshr_miss_latency::.cpu.data 116870.322450                       # average overall mshr miss latency
system.cpu.dcache.overall_avg_mshr_miss_latency::total 116870.322450                       # average overall mshr miss latency
system.cpu.dcache.replacements                2631555                       # number of replacements
system.cpu.dcache.ReadReq_hits::.cpu.data      2043690                       # number of ReadReq hits
system.cpu.dcache.ReadReq_hits::total         2043690                       # number of ReadReq hits
system.cpu.dcache.ReadReq_misses::.cpu.data          350                       # number of ReadReq misses
system.cpu.dcache.ReadReq_misses::total           350                       # number of ReadReq misses
system.cpu.dcache.ReadReq_miss_latency::.cpu.data     27925000                       # number of ReadReq miss cycles
system.cpu.dcache.ReadReq_miss_latency::total     27925000                       # number of ReadReq miss cycles
system.cpu.dcache.ReadReq_accesses::.cpu.data      2044040                       # number of ReadReq accesses(hits+misses)
system.cpu.dcache.ReadReq_accesses::total      2044040                       # number of ReadReq accesses(hits+misses)
system.cpu.dcache.ReadReq_miss_rate::.cpu.data     0.000171                       # miss rate for ReadReq accesses
system.cpu.dcache.ReadReq_miss_rate::total     0.000171                       # miss rate for ReadReq accesses
system.cpu.dcache.ReadReq_avg_miss_latency::.cpu.data 79785.714286                       # average ReadReq miss latency
system.cpu.dcache.ReadReq_avg_miss_latency::total 79785.714286                       # average ReadReq miss latency
system.cpu.dcache.ReadReq_mshr_hits::.cpu.data           19                       # number of ReadReq MSHR hits
system.cpu.dcache.ReadReq_mshr_hits::total           19                       # number of ReadReq MSHR hits
system.cpu.dcache.ReadReq_mshr_misses::.cpu.data          331                       # number of ReadReq MSHR misses
system.cpu.dcache.ReadReq_mshr_misses::total          331                       # number of ReadReq MSHR misses
system.cpu.dcache.ReadReq_mshr_miss_latency::.cpu.data     25636000                       # number of ReadReq MSHR miss cycles
system.cpu.dcache.ReadReq_mshr_miss_latency::total     25636000                       # number of ReadReq MSHR miss cycles
system.cpu.dcache.ReadReq_mshr_miss_rate::.cpu.data     0.000162                       # mshr miss rate for ReadReq accesses
system.cpu.dcache.ReadReq_mshr_miss_rate::total     0.000162                       # mshr miss rate for ReadReq accesses
system.cpu.dcache.ReadReq_avg_mshr_miss_latency::.cpu.data 77450.151057                       # average ReadReq mshr miss latency
system.cpu.dcache.ReadReq_avg_mshr_miss_latency::total 77450.151057                       # average ReadReq mshr miss latency
system.cpu.dcache.WriteReq_hits::.cpu.data     79074604                       # number of WriteReq hits
system.cpu.dcache.WriteReq_hits::total       79074604                       # number of WriteReq hits
system.cpu.dcache.WriteReq_misses::.cpu.data      5261937                       # number of WriteReq misses
system.cpu.dcache.WriteReq_misses::total      5261937                       # number of WriteReq misses
system.cpu.dcache.WriteReq_miss_latency::.cpu.data 633412970000                       # number of WriteReq miss cycles
system.cpu.dcache.WriteReq_miss_latency::total 633412970000                       # number of WriteReq miss cycles
system.cpu.dcache.WriteReq_accesses::.cpu.data     84336541                       # number of WriteReq accesses(hits+misses)
system.cpu.dcache.WriteReq_accesses::total     84336541                       # number of WriteReq accesses(hits+misses)
system.cpu.dcache.WriteReq_miss_rate::.cpu.data     0.062392                       # miss rate for WriteReq accesses
system.cpu.dcache.WriteReq_miss_rate::total     0.062392                       # miss rate for WriteReq accesses
system.cpu.dcache.WriteReq_avg_miss_latency::.cpu.data 120376.388011                       # average WriteReq miss latency
system.cpu.dcache.WriteReq_avg_miss_latency::total 120376.388011                       # average WriteReq miss latency
system.cpu.dcache.WriteReq_mshr_hits::.cpu.data      2630220                       # number of WriteReq MSHR hits
system.cpu.dcache.WriteReq_mshr_hits::total      2630220                       # number of WriteReq MSHR hits
system.cpu.dcache.WriteReq_mshr_misses::.cpu.data      2631717                       # number of WriteReq MSHR misses
system.cpu.dcache.WriteReq_mshr_misses::total      2631717                       # number of WriteReq MSHR misses
system.cpu.dcache.WriteReq_mshr_miss_latency::.cpu.data 307582895000                       # number of WriteReq MSHR miss cycles
system.cpu.dcache.WriteReq_mshr_miss_latency::total 307582895000                       # number of WriteReq MSHR miss cycles
system.cpu.dcache.WriteReq_mshr_miss_rate::.cpu.data     0.031205                       # mshr miss rate for WriteReq accesses
system.cpu.dcache.WriteReq_mshr_miss_rate::total     0.031205                       # mshr miss rate for WriteReq accesses
system.cpu.dcache.WriteReq_avg_mshr_miss_latency::.cpu.data 116875.368818                       # average WriteReq mshr miss latency
system.cpu.dcache.WriteReq_avg_mshr_miss_latency::total 116875.368818                       # average WriteReq mshr miss latency
system.cpu.dcache.SoftPFReq_hits::.cpu.data           43                       # number of SoftPFReq hits
system.cpu.dcache.SoftPFReq_hits::total            43                       # number of SoftPFReq hits
system.cpu.dcache.SoftPFReq_misses::.cpu.data           28                       # number of SoftPFReq misses
system.cpu.dcache.SoftPFReq_misses::total           28                       # number of SoftPFReq misses
system.cpu.dcache.SoftPFReq_accesses::.cpu.data           71                       # number of SoftPFReq accesses(hits+misses)
system.cpu.dcache.SoftPFReq_accesses::total           71                       # number of SoftPFReq accesses(hits+misses)
system.cpu.dcache.SoftPFReq_miss_rate::.cpu.data     0.394366                       # miss rate for SoftPFReq accesses
system.cpu.dcache.SoftPFReq_miss_rate::total     0.394366                       # miss rate for SoftPFReq accesses
system.cpu.dcache.SoftPFReq_mshr_misses::.cpu.data           19                       # number of SoftPFReq MSHR misses
system.cpu.dcache.SoftPFReq_mshr_misses::total           19                       # number of SoftPFReq MSHR misses
system.cpu.dcache.SoftPFReq_mshr_miss_latency::.cpu.data      1988000                       # number of SoftPFReq MSHR miss cycles
system.cpu.dcache.SoftPFReq_mshr_miss_latency::total      1988000                       # number of SoftPFReq MSHR miss cycles
system.cpu.dcache.SoftPFReq_mshr_miss_rate::.cpu.data     0.267606                       # mshr miss rate for SoftPFReq accesses
system.cpu.dcache.SoftPFReq_mshr_miss_rate::total     0.267606                       # mshr miss rate for SoftPFReq accesses
system.cpu.dcache.SoftPFReq_avg_mshr_miss_latency::.cpu.data 104631.578947                       # average SoftPFReq mshr miss latency
system.cpu.dcache.SoftPFReq_avg_mshr_miss_latency::total 104631.578947                       # average SoftPFReq mshr miss latency
system.cpu.dcache.LoadLockedReq_hits::.cpu.data           34                       # number of LoadLockedReq hits
system.cpu.dcache.LoadLockedReq_hits::total           34                       # number of LoadLockedReq hits
system.cpu.dcache.LoadLockedReq_accesses::.cpu.data           34                       # number of LoadLockedReq accesses(hits+misses)
system.cpu.dcache.LoadLockedReq_accesses::total           34                       # number of LoadLockedReq accesses(hits+misses)
system.cpu.dcache.StoreCondReq_hits::.cpu.data           34                       # number of StoreCondReq hits
system.cpu.dcache.StoreCondReq_hits::total           34                       # number of StoreCondReq hits
system.cpu.dcache.StoreCondReq_accesses::.cpu.data           34                       # number of StoreCondReq accesses(hits+misses)
system.cpu.dcache.StoreCondReq_accesses::total           34                       # number of StoreCondReq accesses(hits+misses)
system.cpu.dcache.tags.pwrStateResidencyTicks::UNDEFINED 497467421000                       # Cumulative time (in ticks) in various power states
system.cpu.dcache.tags.tagsinuse           511.761513                       # Cycle average of tags in use
system.cpu.dcache.tags.total_refs            83750472                       # Total number of references to valid blocks.
system.cpu.dcache.tags.sampled_refs           2632067                       # Sample count of references to valid blocks.
system.cpu.dcache.tags.avg_refs             31.819278                       # Average number of references to valid blocks.
system.cpu.dcache.tags.warmup_cycle            233000                       # Cycle when the warmup percentage was hit.
system.cpu.dcache.tags.occ_blocks::.cpu.data   511.761513                       # Average occupied blocks per requestor
system.cpu.dcache.tags.occ_percent::.cpu.data     0.999534                       # Average percentage of cache occupancy
system.cpu.dcache.tags.occ_percent::total     0.999534                       # Average percentage of cache occupancy
system.cpu.dcache.tags.occ_task_id_blocks::1024          512                       # Occupied blocks per task id
system.cpu.dcache.tags.age_task_id_blocks_1024::0           53                       # Occupied blocks per task id
system.cpu.dcache.tags.age_task_id_blocks_1024::1          459                       # Occupied blocks per task id
system.cpu.dcache.tags.occ_task_id_percent::1024            1                       # Percentage of cache occupancy per task id
system.cpu.dcache.tags.tag_accesses         175393507                       # Number of tag accesses
system.cpu.dcache.tags.data_accesses        175393507                       # Number of data accesses
system.cpu.itb.walker.pwrStateResidencyTicks::UNDEFINED 497467421000                       # Cumulative time (in ticks) in various power states
system.cpu.itb.stage2_mmu.stage2_tlb.walker.pwrStateResidencyTicks::UNDEFINED 497467421000                       # Cumulative time (in ticks) in various power states

---------- End Simulation Statistics   ----------
