
---------- Begin Simulation Statistics ----------
final_tick                               158230665000                       # Number of ticks from beginning of simulation (restored from checkpoints and never reset)
host_inst_rate                                 582056                       # Simulator instruction rate (inst/s)
host_mem_usage                                 704992                       # Number of bytes of host memory used
host_op_rate                                   583198                       # Simulator op (including micro ops) rate (op/s)
host_seconds                                   171.80                       # Real time elapsed on the host
host_tick_rate                              920990258                       # Simulator tick rate (ticks/s)
sim_freq                                 1000000000000                       # Frequency of simulated ticks
sim_insts                                   100000000                       # Number of instructions simulated
sim_ops                                     100196365                       # Number of ops (including micro ops) simulated
sim_seconds                                  0.158231                       # Number of seconds simulated
sim_ticks                                158230665000                       # Number of ticks simulated
system.cpu.branchPred.BTBCorrect                    0                       # Number of correct BTB predictions (this stat may not work properly.
system.cpu.branchPred.BTBHitPct             99.694309                       # BTB Hit Percentage
system.cpu.branchPred.BTBHits                 2095374                       # Number of BTB hits
system.cpu.branchPred.BTBLookups              2101799                       # Number of BTB lookups
system.cpu.branchPred.RASInCorrect                  5                       # Number of incorrect RAS predictions.
system.cpu.branchPred.condIncorrect             81341                       # Number of conditional branches incorrect
system.cpu.branchPred.condPredicted           3727552                       # Number of conditional branches predicted
system.cpu.branchPred.indirectHits                291                       # Number of indirect target hits.
system.cpu.branchPred.indirectLookups             808                       # Number of indirect predictor lookups.
system.cpu.branchPred.indirectMisses              517                       # Number of indirect misses.
system.cpu.branchPred.lookups                 4477621                       # Number of BP lookups
system.cpu.branchPred.usedRAS                   65337                       # Number of times the RAS was used to get a target.
system.cpu.branchPredindirectMispredicted          171                       # Number of mispredicted indirect branches.
system.cpu.committedInsts                   100000000                       # Number of instructions committed
system.cpu.committedOps                     100196365                       # Number of ops (including micro ops) committed
system.cpu.cpi                               1.582307                       # CPI: cycles per instruction
system.cpu.discardedOps                        190570                       # Number of ops (including micro ops) which were discarded before commit
system.cpu.dtb.accesses                             0                       # DTB accesses
system.cpu.dtb.align_faults                         0                       # Number of TLB faults due to alignment restrictions
system.cpu.dtb.domain_faults                        0                       # Number of TLB faults due to domain restrictions
system.cpu.dtb.flush_entries                        0                       # Number of entries that have been flushed from TLB
system.cpu.dtb.flush_tlb                            0                       # Number of times complete TLB was flushed
system.cpu.dtb.flush_tlb_asid                       0                       # Number of times TLB was flushed by ASID
system.cpu.dtb.flush_tlb_mva                        0                       # Number of times TLB was flushed by MVA
system.cpu.dtb.flush_tlb_mva_asid                   0                       # Number of times TLB was flushed by MVA & ASID
system.cpu.dtb.hits                                 0                       # DTB hits
system.cpu.dtb.inst_accesses                        0                       # ITB inst accesses
system.cpu.dtb.inst_hits                            0                       # ITB inst hits
system.cpu.dtb.inst_misses                          0                       # ITB inst misses
system.cpu.dtb.misses                               0                       # DTB misses
system.cpu.dtb.perms_faults                         0                       # Number of TLB faults due to permissions restrictions
system.cpu.dtb.prefetch_faults                      0                       # Number of TLB faults due to prefetch
system.cpu.dtb.read_accesses                        0                       # DTB read accesses
system.cpu.dtb.read_hits                            0                       # DTB read hits
system.cpu.dtb.read_misses                          0                       # DTB read misses
system.cpu.dtb.stage2_mmu.stage2_tlb.accesses            0                       # DTB accesses
system.cpu.dtb.stage2_mmu.stage2_tlb.align_faults            0                       # Number of TLB faults due to alignment restrictions
system.cpu.dtb.stage2_mmu.stage2_tlb.domain_faults            0                       # Number of TLB faults due to domain restrictions
system.cpu.dtb.stage2_mmu.stage2_tlb.flush_entries            0                       # Number of entries that have been flushed from TLB
system.cpu.dtb.stage2_mmu.stage2_tlb.flush_tlb            0                       # Number of times complete TLB was flushed
system.cpu.dtb.stage2_mmu.stage2_tlb.flush_tlb_asid            0                       # Number of times TLB was flushed by ASID
system.cpu.dtb.stage2_mmu.stage2_tlb.flush_tlb_mva            0                       # Number of times TLB was flushed by MVA
system.cpu.dtb.stage2_mmu.stage2_tlb.flush_tlb_mva_asid            0                       # Number of times TLB was flushed by MVA & ASID
system.cpu.dtb.stage2_mmu.stage2_tlb.hits            0                       # DTB hits
system.cpu.dtb.stage2_mmu.stage2_tlb.inst_accesses            0                       # ITB inst accesses
system.cpu.dtb.stage2_mmu.stage2_tlb.inst_hits            0                       # ITB inst hits
system.cpu.dtb.stage2_mmu.stage2_tlb.inst_misses            0                       # ITB inst misses
system.cpu.dtb.stage2_mmu.stage2_tlb.misses            0                       # DTB misses
system.cpu.dtb.stage2_mmu.stage2_tlb.perms_faults            0                       # Number of TLB faults due to permissions restrictions
system.cpu.dtb.stage2_mmu.stage2_tlb.prefetch_faults            0                       # Number of TLB faults due to prefetch
system.cpu.dtb.stage2_mmu.stage2_tlb.read_accesses            0                       # DTB read accesses
system.cpu.dtb.stage2_mmu.stage2_tlb.read_hits            0                       # DTB read hits
system.cpu.dtb.stage2_mmu.stage2_tlb.read_misses            0                       # DTB read misses
system.cpu.dtb.stage2_mmu.stage2_tlb.walker.walkRequestOrigin_Requested::Data            0                       # Table walker requests started/completed, data/inst
system.cpu.dtb.stage2_mmu.stage2_tlb.walker.walkRequestOrigin_Requested::Inst            0                       # Table walker requests started/completed, data/inst
system.cpu.dtb.stage2_mmu.stage2_tlb.walker.walkRequestOrigin_Requested::total            0                       # Table walker requests started/completed, data/inst
system.cpu.dtb.stage2_mmu.stage2_tlb.walker.walkRequestOrigin_Completed::Data            0                       # Table walker requests started/completed, data/inst
system.cpu.dtb.stage2_mmu.stage2_tlb.walker.walkRequestOrigin_Completed::Inst            0                       # Table walker requests started/completed, data/inst
system.cpu.dtb.stage2_mmu.stage2_tlb.walker.walkRequestOrigin_Completed::total            0                       # Table walker requests started/completed, data/inst
system.cpu.dtb.stage2_mmu.stage2_tlb.walker.walkRequestOrigin::total            0                       # Table walker requests started/completed, data/inst
system.cpu.dtb.stage2_mmu.stage2_tlb.walker.walks            0                       # Table walker walks requested
system.cpu.dtb.stage2_mmu.stage2_tlb.write_accesses            0                       # DTB write accesses
system.cpu.dtb.stage2_mmu.stage2_tlb.write_hits            0                       # DTB write hits
system.cpu.dtb.stage2_mmu.stage2_tlb.write_misses            0                       # DTB write misses
system.cpu.dtb.walker.walkRequestOrigin_Requested::Data            0                       # Table walker requests started/completed, data/inst
system.cpu.dtb.walker.walkRequestOrigin_Requested::Inst            0                       # Table walker requests started/completed, data/inst
system.cpu.dtb.walker.walkRequestOrigin_Requested::total            0                       # Table walker requests started/completed, data/inst
system.cpu.dtb.walker.walkRequestOrigin_Completed::Data            0                       # Table walker requests started/completed, data/inst
system.cpu.dtb.walker.walkRequestOrigin_Completed::Inst            0                       # Table walker requests started/completed, data/inst
system.cpu.dtb.walker.walkRequestOrigin_Completed::total            0                       # Table walker requests started/completed, data/inst
system.cpu.dtb.walker.walkRequestOrigin::total            0                       # Table walker requests started/completed, data/inst
system.cpu.dtb.walker.walks                         0                       # Table walker walks requested
system.cpu.dtb.write_accesses                       0                       # DTB write accesses
system.cpu.dtb.write_hits                           0                       # DTB write hits
system.cpu.dtb.write_misses                         0                       # DTB write misses
system.cpu.fetch2.amo_instructions                  0                       # Number of memory atomic instructions successfully decoded
system.cpu.fetch2.fp_instructions                   0                       # Number of floating point instructions successfully decoded
system.cpu.fetch2.int_instructions           42609913                       # Number of integer instructions successfully decoded
system.cpu.fetch2.load_instructions          43402139                       # Number of memory load instructions successfully decoded
system.cpu.fetch2.store_instructions         11001308                       # Number of memory store instructions successfully decoded
system.cpu.fetch2.vec_instructions                  0                       # Number of SIMD instructions successfully decoded
system.cpu.idleCycles                        25823879                       # Total number of cycles that the object has spent stopped
system.cpu.ipc                               0.631989                       # IPC: instructions per cycle
system.cpu.itb.accesses                             0                       # DTB accesses
system.cpu.itb.align_faults                         0                       # Number of TLB faults due to alignment restrictions
system.cpu.itb.domain_faults                        0                       # Number of TLB faults due to domain restrictions
system.cpu.itb.flush_entries                        0                       # Number of entries that have been flushed from TLB
system.cpu.itb.flush_tlb                            0                       # Number of times complete TLB was flushed
system.cpu.itb.flush_tlb_asid                       0                       # Number of times TLB was flushed by ASID
system.cpu.itb.flush_tlb_mva                        0                       # Number of times TLB was flushed by MVA
system.cpu.itb.flush_tlb_mva_asid                   0                       # Number of times TLB was flushed by MVA & ASID
system.cpu.itb.hits                                 0                       # DTB hits
system.cpu.itb.inst_accesses                        0                       # ITB inst accesses
system.cpu.itb.inst_hits                            0                       # ITB inst hits
system.cpu.itb.inst_misses                          0                       # ITB inst misses
system.cpu.itb.misses                               0                       # DTB misses
system.cpu.itb.perms_faults                         0                       # Number of TLB faults due to permissions restrictions
system.cpu.itb.prefetch_faults                      0                       # Number of TLB faults due to prefetch
system.cpu.itb.read_accesses                        0                       # DTB read accesses
system.cpu.itb.read_hits                            0                       # DTB read hits
system.cpu.itb.read_misses                          0                       # DTB read misses
system.cpu.itb.stage2_mmu.stage2_tlb.accesses            0                       # DTB accesses
system.cpu.itb.stage2_mmu.stage2_tlb.align_faults            0                       # Number of TLB faults due to alignment restrictions
system.cpu.itb.stage2_mmu.stage2_tlb.domain_faults            0                       # Number of TLB faults due to domain restrictions
system.cpu.itb.stage2_mmu.stage2_tlb.flush_entries            0                       # Number of entries that have been flushed from TLB
system.cpu.itb.stage2_mmu.stage2_tlb.flush_tlb            0                       # Number of times complete TLB was flushed
system.cpu.itb.stage2_mmu.stage2_tlb.flush_tlb_asid            0                       # Number of times TLB was flushed by ASID
system.cpu.itb.stage2_mmu.stage2_tlb.flush_tlb_mva            0                       # Number of times TLB was flushed by MVA
system.cpu.itb.stage2_mmu.stage2_tlb.flush_tlb_mva_asid            0                       # Number of times TLB was flushed by MVA & ASID
system.cpu.itb.stage2_mmu.stage2_tlb.hits            0                       # DTB hits
system.cpu.itb.stage2_mmu.stage2_tlb.inst_accesses            0                       # ITB inst accesses
system.cpu.itb.stage2_mmu.stage2_tlb.inst_hits            0                       # ITB inst hits
system.cpu.itb.stage2_mmu.stage2_tlb.inst_misses            0                       # ITB inst misses
system.cpu.itb.stage2_mmu.stage2_tlb.misses            0                       # DTB misses
system.cpu.itb.stage2_mmu.stage2_tlb.perms_faults            0                       # Number of TLB faults due to permissions restrictions
system.cpu.itb.stage2_mmu.stage2_tlb.prefetch_faults            0                       # Number of TLB faults due to prefetch
system.cpu.itb.stage2_mmu.stage2_tlb.read_accesses            0                       # DTB read accesses
system.cpu.itb.stage2_mmu.stage2_tlb.read_hits            0                       # DTB read hits
system.cpu.itb.stage2_mmu.stage2_tlb.read_misses            0                       # DTB read misses
system.cpu.itb.stage2_mmu.stage2_tlb.walker.walkRequestOrigin_Requested::Data            0                       # Table walker requests started/completed, data/inst
system.cpu.itb.stage2_mmu.stage2_tlb.walker.walkRequestOrigin_Requested::Inst            0                       # Table walker requests started/completed, data/inst
system.cpu.itb.stage2_mmu.stage2_tlb.walker.walkRequestOrigin_Requested::total            0                       # Table walker requests started/completed, data/inst
system.cpu.itb.stage2_mmu.stage2_tlb.walker.walkRequestOrigin_Completed::Data            0                       # Table walker requests started/completed, data/inst
system.cpu.itb.stage2_mmu.stage2_tlb.walker.walkRequestOrigin_Completed::Inst            0                       # Table walker requests started/completed, data/inst
system.cpu.itb.stage2_mmu.stage2_tlb.walker.walkRequestOrigin_Completed::total            0                       # Table walker requests started/completed, data/inst
system.cpu.itb.stage2_mmu.stage2_tlb.walker.walkRequestOrigin::total            0                       # Table walker requests started/completed, data/inst
system.cpu.itb.stage2_mmu.stage2_tlb.walker.walks            0                       # Table walker walks requested
system.cpu.itb.stage2_mmu.stage2_tlb.write_accesses            0                       # DTB write accesses
system.cpu.itb.stage2_mmu.stage2_tlb.write_hits            0                       # DTB write hits
system.cpu.itb.stage2_mmu.stage2_tlb.write_misses            0                       # DTB write misses
system.cpu.itb.walker.walkRequestOrigin_Requested::Data            0                       # Table walker requests started/completed, data/inst
system.cpu.itb.walker.walkRequestOrigin_Requested::Inst            0                       # Table walker requests started/completed, data/inst
system.cpu.itb.walker.walkRequestOrigin_Requested::total            0                       # Table walker requests started/completed, data/inst
system.cpu.itb.walker.walkRequestOrigin_Completed::Data            0                       # Table walker requests started/completed, data/inst
system.cpu.itb.walker.walkRequestOrigin_Completed::Inst            0                       # Table walker requests started/completed, data/inst
system.cpu.itb.walker.walkRequestOrigin_Completed::total            0                       # Table walker requests started/completed, data/inst
system.cpu.itb.walker.walkRequestOrigin::total            0                       # Table walker requests started/completed, data/inst
system.cpu.itb.walker.walks                         0                       # Table walker walks requested
system.cpu.itb.write_accesses                       0                       # DTB write accesses
system.cpu.itb.write_hits                           0                       # DTB write hits
system.cpu.itb.write_misses                         0                       # DTB write misses
system.cpu.numCycles                        158230665                       # number of cpu cycles simulated
system.cpu.numFetchSuspends                         0                       # Number of times Execute suspended instruction fetching
system.cpu.numWorkItemsCompleted                    0                       # number of work items this cpu completed
system.cpu.numWorkItemsStarted                      0                       # number of work items this cpu started
system.cpu.op_class_0::No_OpClass                   0      0.00%      0.00% # Class of committed instruction
system.cpu.op_class_0::IntAlu                46531422     46.44%     46.44% # Class of committed instruction
system.cpu.op_class_0::IntMult                  20720      0.02%     46.46% # Class of committed instruction
system.cpu.op_class_0::IntDiv                       0      0.00%     46.46% # Class of committed instruction
system.cpu.op_class_0::FloatAdd                     0      0.00%     46.46% # Class of committed instruction
system.cpu.op_class_0::FloatCmp                     0      0.00%     46.46% # Class of committed instruction
system.cpu.op_class_0::FloatCvt                     0      0.00%     46.46% # Class of committed instruction
system.cpu.op_class_0::FloatMult                    0      0.00%     46.46% # Class of committed instruction
system.cpu.op_class_0::FloatMultAcc                 0      0.00%     46.46% # Class of committed instruction
system.cpu.op_class_0::FloatDiv                     0      0.00%     46.46% # Class of committed instruction
system.cpu.op_class_0::FloatMisc                    0      0.00%     46.46% # Class of committed instruction
system.cpu.op_class_0::FloatSqrt                    0      0.00%     46.46% # Class of committed instruction
system.cpu.op_class_0::SimdAdd                      0      0.00%     46.46% # Class of committed instruction
system.cpu.op_class_0::SimdAddAcc                   0      0.00%     46.46% # Class of committed instruction
system.cpu.op_class_0::SimdAlu                      0      0.00%     46.46% # Class of committed instruction
system.cpu.op_class_0::SimdCmp                      0      0.00%     46.46% # Class of committed instruction
system.cpu.op_class_0::SimdCvt                      0      0.00%     46.46% # Class of committed instruction
system.cpu.op_class_0::SimdMisc                     0      0.00%     46.46% # Class of committed instruction
system.cpu.op_class_0::SimdMult                     0      0.00%     46.46% # Class of committed instruction
system.cpu.op_class_0::SimdMultAcc                  0      0.00%     46.46% # Class of committed instruction
system.cpu.op_class_0::SimdShift                    0      0.00%     46.46% # Class of committed instruction
system.cpu.op_class_0::SimdShiftAcc                 0      0.00%     46.46% # Class of committed instruction
system.cpu.op_class_0::SimdDiv                      0      0.00%     46.46% # Class of committed instruction
system.cpu.op_class_0::SimdSqrt                     0      0.00%     46.46% # Class of committed instruction
system.cpu.op_class_0::SimdFloatAdd                 0      0.00%     46.46% # Class of committed instruction
system.cpu.op_class_0::SimdFloatAlu                 0      0.00%     46.46% # Class of committed instruction
system.cpu.op_class_0::SimdFloatCmp                 0      0.00%     46.46% # Class of committed instruction
system.cpu.op_class_0::SimdFloatCvt                 0      0.00%     46.46% # Class of committed instruction
system.cpu.op_class_0::SimdFloatDiv                 0      0.00%     46.46% # Class of committed instruction
system.cpu.op_class_0::SimdFloatMisc               18      0.00%     46.46% # Class of committed instruction
system.cpu.op_class_0::SimdFloatMult                0      0.00%     46.46% # Class of committed instruction
system.cpu.op_class_0::SimdFloatMultAcc             0      0.00%     46.46% # Class of committed instruction
system.cpu.op_class_0::SimdFloatSqrt                0      0.00%     46.46% # Class of committed instruction
system.cpu.op_class_0::SimdReduceAdd                0      0.00%     46.46% # Class of committed instruction
system.cpu.op_class_0::SimdReduceAlu                0      0.00%     46.46% # Class of committed instruction
system.cpu.op_class_0::SimdReduceCmp                0      0.00%     46.46% # Class of committed instruction
system.cpu.op_class_0::SimdFloatReduceAdd            0      0.00%     46.46% # Class of committed instruction
system.cpu.op_class_0::SimdFloatReduceCmp            0      0.00%     46.46% # Class of committed instruction
system.cpu.op_class_0::SimdAes                      0      0.00%     46.46% # Class of committed instruction
system.cpu.op_class_0::SimdAesMix                   0      0.00%     46.46% # Class of committed instruction
system.cpu.op_class_0::SimdSha1Hash                 0      0.00%     46.46% # Class of committed instruction
system.cpu.op_class_0::SimdSha1Hash2                0      0.00%     46.46% # Class of committed instruction
system.cpu.op_class_0::SimdSha256Hash               0      0.00%     46.46% # Class of committed instruction
system.cpu.op_class_0::SimdSha256Hash2              0      0.00%     46.46% # Class of committed instruction
system.cpu.op_class_0::SimdShaSigma2                0      0.00%     46.46% # Class of committed instruction
system.cpu.op_class_0::SimdShaSigma3                0      0.00%     46.46% # Class of committed instruction
system.cpu.op_class_0::SimdPredAlu                  0      0.00%     46.46% # Class of committed instruction
system.cpu.op_class_0::MemRead               42693587     42.61%     89.07% # Class of committed instruction
system.cpu.op_class_0::MemWrite              10950618     10.93%    100.00% # Class of committed instruction
system.cpu.op_class_0::FloatMemRead                 0      0.00%    100.00% # Class of committed instruction
system.cpu.op_class_0::FloatMemWrite                0      0.00%    100.00% # Class of committed instruction
system.cpu.op_class_0::IprAccess                    0      0.00%    100.00% # Class of committed instruction
system.cpu.op_class_0::InstPrefetch                 0      0.00%    100.00% # Class of committed instruction
system.cpu.op_class_0::total                100196365                       # Class of committed instruction
system.cpu.tickCycles                       132406786                       # Number of cycles that the object actually ticked
system.cpu.workload.numSyscalls                    84                       # Number of system calls
system.membus.snoop_filter.hit_multi_requests            0                       # Number of requests hitting in the snoop filter with multiple (>1) holders of the requested data.
system.membus.snoop_filter.hit_multi_snoops            0                       # Number of snoops hitting in the snoop filter with multiple (>1) holders of the requested data.
system.membus.snoop_filter.hit_single_requests       167885                       # Number of requests hitting in the snoop filter with a single holder of the requested data.
system.membus.snoop_filter.hit_single_snoops            0                       # Number of snoops hitting in the snoop filter with a single holder of the requested data.
system.membus.snoop_filter.tot_requests        368872                       # Total number of requests made to the snoop filter.
system.membus.snoop_filter.tot_snoops               0                       # Total number of snoops made to the snoop filter.
system.tol2bus.snoop_filter.hit_multi_requests           70                       # Number of requests hitting in the snoop filter with multiple (>1) holders of the requested data.
system.tol2bus.snoop_filter.hit_multi_snoops            0                       # Number of snoops hitting in the snoop filter with multiple (>1) holders of the requested data.
system.tol2bus.snoop_filter.hit_single_requests       551013                       # Number of requests hitting in the snoop filter with a single holder of the requested data.
system.tol2bus.snoop_filter.hit_single_snoops          469                       # Number of snoops hitting in the snoop filter with a single holder of the requested data.
system.tol2bus.snoop_filter.tot_requests      1104516                       # Total number of requests made to the snoop filter.
system.tol2bus.snoop_filter.tot_snoops            469                       # Total number of snoops made to the snoop filter.
system.membus.pwrStateResidencyTicks::UNDEFINED 158230665000                       # Cumulative time (in ticks) in various power states
system.membus.trans_dist::ReadResp              64878                       # Transaction distribution
system.membus.trans_dist::WritebackDirty       111090                       # Transaction distribution
system.membus.trans_dist::CleanEvict            56788                       # Transaction distribution
system.membus.trans_dist::ReadExReq            136116                       # Transaction distribution
system.membus.trans_dist::ReadExResp           136115                       # Transaction distribution
system.membus.trans_dist::ReadSharedReq         64878                       # Transaction distribution
system.membus.pkt_count_system.l2.mem_side::system.mem_ctrls.port       569865                       # Packet count per connected master and slave (bytes)
system.membus.pkt_count::total                 569865                       # Packet count per connected master and slave (bytes)
system.membus.pkt_size_system.l2.mem_side::system.mem_ctrls.port     19973312                       # Cumulative packet size per connected master and slave (bytes)
system.membus.pkt_size::total                19973312                       # Cumulative packet size per connected master and slave (bytes)
system.membus.snoops                                0                       # Total snoops (count)
system.membus.snoopTraffic                          0                       # Total snoop traffic (bytes)
system.membus.snoop_fanout::samples            200994                       # Request fanout histogram
system.membus.snoop_fanout::mean                    0                       # Request fanout histogram
system.membus.snoop_fanout::stdev                   0                       # Request fanout histogram
system.membus.snoop_fanout::underflows              0      0.00%      0.00% # Request fanout histogram
system.membus.snoop_fanout::0                  200994    100.00%    100.00% # Request fanout histogram
system.membus.snoop_fanout::1                       0      0.00%    100.00% # Request fanout histogram
system.membus.snoop_fanout::overflows               0      0.00%    100.00% # Request fanout histogram
system.membus.snoop_fanout::min_value               0                       # Request fanout histogram
system.membus.snoop_fanout::max_value               0                       # Request fanout histogram
system.membus.snoop_fanout::total              200994                       # Request fanout histogram
system.membus.respLayer1.occupancy         1086235000                       # Layer occupancy (ticks)
system.membus.respLayer1.utilization              0.7                       # Layer utilization (%)
system.membus.reqLayer0.occupancy           813232000                       # Layer occupancy (ticks)
system.membus.reqLayer0.utilization               0.5                       # Layer utilization (%)
system.tol2bus.pwrStateResidencyTicks::UNDEFINED 158230665000                       # Cumulative time (in ticks) in various power states
system.tol2bus.trans_dist::ReadResp            309798                       # Transaction distribution
system.tol2bus.trans_dist::WritebackDirty       588230                       # Transaction distribution
system.tol2bus.trans_dist::WritebackClean          302                       # Transaction distribution
system.tol2bus.trans_dist::CleanEvict          130826                       # Transaction distribution
system.tol2bus.trans_dist::ReadExReq           243707                       # Transaction distribution
system.tol2bus.trans_dist::ReadExResp          243706                       # Transaction distribution
system.tol2bus.trans_dist::ReadCleanReq           747                       # Transaction distribution
system.tol2bus.trans_dist::ReadSharedReq       309051                       # Transaction distribution
system.tol2bus.pkt_count_system.cpu.icache.mem_side::system.l2.cpu_side         1796                       # Packet count per connected master and slave (bytes)
system.tol2bus.pkt_count_system.cpu.dcache.mem_side::system.l2.cpu_side      1656224                       # Packet count per connected master and slave (bytes)
system.tol2bus.pkt_count::total               1658020                       # Packet count per connected master and slave (bytes)
system.tol2bus.pkt_size_system.cpu.icache.mem_side::system.l2.cpu_side        67136                       # Cumulative packet size per connected master and slave (bytes)
system.tol2bus.pkt_size_system.cpu.dcache.mem_side::system.l2.cpu_side     65913408                       # Cumulative packet size per connected master and slave (bytes)
system.tol2bus.pkt_size::total               65980544                       # Cumulative packet size per connected master and slave (bytes)
system.tol2bus.snoops                          168347                       # Total snoops (count)
system.tol2bus.snoopTraffic                   7109760                       # Total snoop traffic (bytes)
system.tol2bus.snoop_fanout::samples           721852                       # Request fanout histogram
system.tol2bus.snoop_fanout::mean            0.000749                       # Request fanout histogram
system.tol2bus.snoop_fanout::stdev           0.027366                       # Request fanout histogram
system.tol2bus.snoop_fanout::underflows             0      0.00%      0.00% # Request fanout histogram
system.tol2bus.snoop_fanout::0                 721311     99.93%     99.93% # Request fanout histogram
system.tol2bus.snoop_fanout::1                    541      0.07%    100.00% # Request fanout histogram
system.tol2bus.snoop_fanout::2                      0      0.00%    100.00% # Request fanout histogram
system.tol2bus.snoop_fanout::overflows              0      0.00%    100.00% # Request fanout histogram
system.tol2bus.snoop_fanout::min_value              0                       # Request fanout histogram
system.tol2bus.snoop_fanout::max_value              1                       # Request fanout histogram
system.tol2bus.snoop_fanout::total             721852                       # Request fanout histogram
system.tol2bus.reqLayer0.occupancy         2059400000                       # Layer occupancy (ticks)
system.tol2bus.reqLayer0.utilization              1.3                       # Layer utilization (%)
system.tol2bus.respLayer1.occupancy        1658274996                       # Layer occupancy (ticks)
system.tol2bus.respLayer1.utilization             1.0                       # Layer utilization (%)
system.tol2bus.respLayer0.occupancy           2241000                       # Layer occupancy (ticks)
system.tol2bus.respLayer0.utilization             0.0                       # Layer utilization (%)
system.voltage_domain.voltage                       1                       # Voltage in Volts
system.clk_domain.clock                          1000                       # Clock period in ticks
system.l2.pwrStateResidencyTicks::UNDEFINED 158230665000                       # Cumulative time (in ticks) in various power states
system.l2.demand_hits::.cpu.inst                   78                       # number of demand (read+write) hits
system.l2.demand_hits::.cpu.data               352429                       # number of demand (read+write) hits
system.l2.demand_hits::total                   352507                       # number of demand (read+write) hits
system.l2.overall_hits::.cpu.inst                  78                       # number of overall hits
system.l2.overall_hits::.cpu.data              352429                       # number of overall hits
system.l2.overall_hits::total                  352507                       # number of overall hits
system.l2.demand_misses::.cpu.inst                669                       # number of demand (read+write) misses
system.l2.demand_misses::.cpu.data             200329                       # number of demand (read+write) misses
system.l2.demand_misses::total                 200998                       # number of demand (read+write) misses
system.l2.overall_misses::.cpu.inst               669                       # number of overall misses
system.l2.overall_misses::.cpu.data            200329                       # number of overall misses
system.l2.overall_misses::total                200998                       # number of overall misses
system.l2.demand_miss_latency::.cpu.inst     67448000                       # number of demand (read+write) miss cycles
system.l2.demand_miss_latency::.cpu.data  20908838000                       # number of demand (read+write) miss cycles
system.l2.demand_miss_latency::total      20976286000                       # number of demand (read+write) miss cycles
system.l2.overall_miss_latency::.cpu.inst     67448000                       # number of overall miss cycles
system.l2.overall_miss_latency::.cpu.data  20908838000                       # number of overall miss cycles
system.l2.overall_miss_latency::total     20976286000                       # number of overall miss cycles
system.l2.demand_accesses::.cpu.inst              747                       # number of demand (read+write) accesses
system.l2.demand_accesses::.cpu.data           552758                       # number of demand (read+write) accesses
system.l2.demand_accesses::total               553505                       # number of demand (read+write) accesses
system.l2.overall_accesses::.cpu.inst             747                       # number of overall (read+write) accesses
system.l2.overall_accesses::.cpu.data          552758                       # number of overall (read+write) accesses
system.l2.overall_accesses::total              553505                       # number of overall (read+write) accesses
system.l2.demand_miss_rate::.cpu.inst        0.895582                       # miss rate for demand accesses
system.l2.demand_miss_rate::.cpu.data        0.362417                       # miss rate for demand accesses
system.l2.demand_miss_rate::total            0.363137                       # miss rate for demand accesses
system.l2.overall_miss_rate::.cpu.inst       0.895582                       # miss rate for overall accesses
system.l2.overall_miss_rate::.cpu.data       0.362417                       # miss rate for overall accesses
system.l2.overall_miss_rate::total           0.363137                       # miss rate for overall accesses
system.l2.demand_avg_miss_latency::.cpu.inst 100819.133034                       # average overall miss latency
system.l2.demand_avg_miss_latency::.cpu.data 104372.497242                       # average overall miss latency
system.l2.demand_avg_miss_latency::total 104360.670255                       # average overall miss latency
system.l2.overall_avg_miss_latency::.cpu.inst 100819.133034                       # average overall miss latency
system.l2.overall_avg_miss_latency::.cpu.data 104372.497242                       # average overall miss latency
system.l2.overall_avg_miss_latency::total 104360.670255                       # average overall miss latency
system.l2.blocked_cycles::no_mshrs                  0                       # number of cycles access was blocked
system.l2.blocked_cycles::no_targets                0                       # number of cycles access was blocked
system.l2.blocked::no_mshrs                         0                       # number of cycles access was blocked
system.l2.blocked::no_targets                       0                       # number of cycles access was blocked
system.l2.avg_blocked_cycles::no_mshrs            nan                       # average number of cycles each access was blocked
system.l2.avg_blocked_cycles::no_targets          nan                       # average number of cycles each access was blocked
system.l2.writebacks::.writebacks              111090                       # number of writebacks
system.l2.writebacks::total                    111090                       # number of writebacks
system.l2.demand_mshr_hits::.cpu.data               4                       # number of demand (read+write) MSHR hits
system.l2.demand_mshr_hits::total                   4                       # number of demand (read+write) MSHR hits
system.l2.overall_mshr_hits::.cpu.data              4                       # number of overall MSHR hits
system.l2.overall_mshr_hits::total                  4                       # number of overall MSHR hits
system.l2.demand_mshr_misses::.cpu.inst           669                       # number of demand (read+write) MSHR misses
system.l2.demand_mshr_misses::.cpu.data        200325                       # number of demand (read+write) MSHR misses
system.l2.demand_mshr_misses::total            200994                       # number of demand (read+write) MSHR misses
system.l2.overall_mshr_misses::.cpu.inst          669                       # number of overall MSHR misses
system.l2.overall_mshr_misses::.cpu.data       200325                       # number of overall MSHR misses
system.l2.overall_mshr_misses::total           200994                       # number of overall MSHR misses
system.l2.demand_mshr_miss_latency::.cpu.inst     54068000                       # number of demand (read+write) MSHR miss cycles
system.l2.demand_mshr_miss_latency::.cpu.data  16901976000                       # number of demand (read+write) MSHR miss cycles
system.l2.demand_mshr_miss_latency::total  16956044000                       # number of demand (read+write) MSHR miss cycles
system.l2.overall_mshr_miss_latency::.cpu.inst     54068000                       # number of overall MSHR miss cycles
system.l2.overall_mshr_miss_latency::.cpu.data  16901976000                       # number of overall MSHR miss cycles
system.l2.overall_mshr_miss_latency::total  16956044000                       # number of overall MSHR miss cycles
system.l2.demand_mshr_miss_rate::.cpu.inst     0.895582                       # mshr miss rate for demand accesses
system.l2.demand_mshr_miss_rate::.cpu.data     0.362410                       # mshr miss rate for demand accesses
system.l2.demand_mshr_miss_rate::total       0.363130                       # mshr miss rate for demand accesses
system.l2.overall_mshr_miss_rate::.cpu.inst     0.895582                       # mshr miss rate for overall accesses
system.l2.overall_mshr_miss_rate::.cpu.data     0.362410                       # mshr miss rate for overall accesses
system.l2.overall_mshr_miss_rate::total      0.363130                       # mshr miss rate for overall accesses
system.l2.demand_avg_mshr_miss_latency::.cpu.inst 80819.133034                       # average overall mshr miss latency
system.l2.demand_avg_mshr_miss_latency::.cpu.data 84372.774242                       # average overall mshr miss latency
system.l2.demand_avg_mshr_miss_latency::total 84360.946098                       # average overall mshr miss latency
system.l2.overall_avg_mshr_miss_latency::.cpu.inst 80819.133034                       # average overall mshr miss latency
system.l2.overall_avg_mshr_miss_latency::.cpu.data 84372.774242                       # average overall mshr miss latency
system.l2.overall_avg_mshr_miss_latency::total 84360.946098                       # average overall mshr miss latency
system.l2.replacements                         168347                       # number of replacements
system.l2.WritebackDirty_hits::.writebacks       477140                       # number of WritebackDirty hits
system.l2.WritebackDirty_hits::total           477140                       # number of WritebackDirty hits
system.l2.WritebackDirty_accesses::.writebacks       477140                       # number of WritebackDirty accesses(hits+misses)
system.l2.WritebackDirty_accesses::total       477140                       # number of WritebackDirty accesses(hits+misses)
system.l2.WritebackClean_hits::.writebacks          293                       # number of WritebackClean hits
system.l2.WritebackClean_hits::total              293                       # number of WritebackClean hits
system.l2.WritebackClean_accesses::.writebacks          293                       # number of WritebackClean accesses(hits+misses)
system.l2.WritebackClean_accesses::total          293                       # number of WritebackClean accesses(hits+misses)
system.l2.ReadExReq_hits::.cpu.data            107591                       # number of ReadExReq hits
system.l2.ReadExReq_hits::total                107591                       # number of ReadExReq hits
system.l2.ReadExReq_misses::.cpu.data          136116                       # number of ReadExReq misses
system.l2.ReadExReq_misses::total              136116                       # number of ReadExReq misses
system.l2.ReadExReq_miss_latency::.cpu.data  14496567000                       # number of ReadExReq miss cycles
system.l2.ReadExReq_miss_latency::total   14496567000                       # number of ReadExReq miss cycles
system.l2.ReadExReq_accesses::.cpu.data        243707                       # number of ReadExReq accesses(hits+misses)
system.l2.ReadExReq_accesses::total            243707                       # number of ReadExReq accesses(hits+misses)
system.l2.ReadExReq_miss_rate::.cpu.data     0.558523                       # miss rate for ReadExReq accesses
system.l2.ReadExReq_miss_rate::total         0.558523                       # miss rate for ReadExReq accesses
system.l2.ReadExReq_avg_miss_latency::.cpu.data 106501.564842                       # average ReadExReq miss latency
system.l2.ReadExReq_avg_miss_latency::total 106501.564842                       # average ReadExReq miss latency
system.l2.ReadExReq_mshr_misses::.cpu.data       136116                       # number of ReadExReq MSHR misses
system.l2.ReadExReq_mshr_misses::total         136116                       # number of ReadExReq MSHR misses
system.l2.ReadExReq_mshr_miss_latency::.cpu.data  11774267000                       # number of ReadExReq MSHR miss cycles
system.l2.ReadExReq_mshr_miss_latency::total  11774267000                       # number of ReadExReq MSHR miss cycles
system.l2.ReadExReq_mshr_miss_rate::.cpu.data     0.558523                       # mshr miss rate for ReadExReq accesses
system.l2.ReadExReq_mshr_miss_rate::total     0.558523                       # mshr miss rate for ReadExReq accesses
system.l2.ReadExReq_avg_mshr_miss_latency::.cpu.data 86501.711775                       # average ReadExReq mshr miss latency
system.l2.ReadExReq_avg_mshr_miss_latency::total 86501.711775                       # average ReadExReq mshr miss latency
system.l2.ReadCleanReq_hits::.cpu.inst             78                       # number of ReadCleanReq hits
system.l2.ReadCleanReq_hits::total                 78                       # number of ReadCleanReq hits
system.l2.ReadCleanReq_misses::.cpu.inst          669                       # number of ReadCleanReq misses
system.l2.ReadCleanReq_misses::total              669                       # number of ReadCleanReq misses
system.l2.ReadCleanReq_miss_latency::.cpu.inst     67448000                       # number of ReadCleanReq miss cycles
system.l2.ReadCleanReq_miss_latency::total     67448000                       # number of ReadCleanReq miss cycles
system.l2.ReadCleanReq_accesses::.cpu.inst          747                       # number of ReadCleanReq accesses(hits+misses)
system.l2.ReadCleanReq_accesses::total            747                       # number of ReadCleanReq accesses(hits+misses)
system.l2.ReadCleanReq_miss_rate::.cpu.inst     0.895582                       # miss rate for ReadCleanReq accesses
system.l2.ReadCleanReq_miss_rate::total      0.895582                       # miss rate for ReadCleanReq accesses
system.l2.ReadCleanReq_avg_miss_latency::.cpu.inst 100819.133034                       # average ReadCleanReq miss latency
system.l2.ReadCleanReq_avg_miss_latency::total 100819.133034                       # average ReadCleanReq miss latency
system.l2.ReadCleanReq_mshr_misses::.cpu.inst          669                       # number of ReadCleanReq MSHR misses
system.l2.ReadCleanReq_mshr_misses::total          669                       # number of ReadCleanReq MSHR misses
system.l2.ReadCleanReq_mshr_miss_latency::.cpu.inst     54068000                       # number of ReadCleanReq MSHR miss cycles
system.l2.ReadCleanReq_mshr_miss_latency::total     54068000                       # number of ReadCleanReq MSHR miss cycles
system.l2.ReadCleanReq_mshr_miss_rate::.cpu.inst     0.895582                       # mshr miss rate for ReadCleanReq accesses
system.l2.ReadCleanReq_mshr_miss_rate::total     0.895582                       # mshr miss rate for ReadCleanReq accesses
system.l2.ReadCleanReq_avg_mshr_miss_latency::.cpu.inst 80819.133034                       # average ReadCleanReq mshr miss latency
system.l2.ReadCleanReq_avg_mshr_miss_latency::total 80819.133034                       # average ReadCleanReq mshr miss latency
system.l2.ReadSharedReq_hits::.cpu.data        244838                       # number of ReadSharedReq hits
system.l2.ReadSharedReq_hits::total            244838                       # number of ReadSharedReq hits
system.l2.ReadSharedReq_misses::.cpu.data        64213                       # number of ReadSharedReq misses
system.l2.ReadSharedReq_misses::total           64213                       # number of ReadSharedReq misses
system.l2.ReadSharedReq_miss_latency::.cpu.data   6412271000                       # number of ReadSharedReq miss cycles
system.l2.ReadSharedReq_miss_latency::total   6412271000                       # number of ReadSharedReq miss cycles
system.l2.ReadSharedReq_accesses::.cpu.data       309051                       # number of ReadSharedReq accesses(hits+misses)
system.l2.ReadSharedReq_accesses::total        309051                       # number of ReadSharedReq accesses(hits+misses)
system.l2.ReadSharedReq_miss_rate::.cpu.data     0.207775                       # miss rate for ReadSharedReq accesses
system.l2.ReadSharedReq_miss_rate::total     0.207775                       # miss rate for ReadSharedReq accesses
system.l2.ReadSharedReq_avg_miss_latency::.cpu.data 99859.389843                       # average ReadSharedReq miss latency
system.l2.ReadSharedReq_avg_miss_latency::total 99859.389843                       # average ReadSharedReq miss latency
system.l2.ReadSharedReq_mshr_hits::.cpu.data            4                       # number of ReadSharedReq MSHR hits
system.l2.ReadSharedReq_mshr_hits::total            4                       # number of ReadSharedReq MSHR hits
system.l2.ReadSharedReq_mshr_misses::.cpu.data        64209                       # number of ReadSharedReq MSHR misses
system.l2.ReadSharedReq_mshr_misses::total        64209                       # number of ReadSharedReq MSHR misses
system.l2.ReadSharedReq_mshr_miss_latency::.cpu.data   5127709000                       # number of ReadSharedReq MSHR miss cycles
system.l2.ReadSharedReq_mshr_miss_latency::total   5127709000                       # number of ReadSharedReq MSHR miss cycles
system.l2.ReadSharedReq_mshr_miss_rate::.cpu.data     0.207762                       # mshr miss rate for ReadSharedReq accesses
system.l2.ReadSharedReq_mshr_miss_rate::total     0.207762                       # mshr miss rate for ReadSharedReq accesses
system.l2.ReadSharedReq_avg_mshr_miss_latency::.cpu.data 79859.661418                       # average ReadSharedReq mshr miss latency
system.l2.ReadSharedReq_avg_mshr_miss_latency::total 79859.661418                       # average ReadSharedReq mshr miss latency
system.l2.tags.pwrStateResidencyTicks::UNDEFINED 158230665000                       # Cumulative time (in ticks) in various power states
system.l2.tags.tagsinuse                 32146.411491                       # Cycle average of tags in use
system.l2.tags.total_refs                     1104441                       # Total number of references to valid blocks.
system.l2.tags.sampled_refs                    201115                       # Sample count of references to valid blocks.
system.l2.tags.avg_refs                      5.491589                       # Average number of references to valid blocks.
system.l2.tags.warmup_cycle                     87000                       # Cycle when the warmup percentage was hit.
system.l2.tags.occ_blocks::.writebacks      41.417283                       # Average occupied blocks per requestor
system.l2.tags.occ_blocks::.cpu.inst        81.225236                       # Average occupied blocks per requestor
system.l2.tags.occ_blocks::.cpu.data     32023.768972                       # Average occupied blocks per requestor
system.l2.tags.occ_percent::.writebacks      0.001264                       # Average percentage of cache occupancy
system.l2.tags.occ_percent::.cpu.inst        0.002479                       # Average percentage of cache occupancy
system.l2.tags.occ_percent::.cpu.data        0.977288                       # Average percentage of cache occupancy
system.l2.tags.occ_percent::total            0.981031                       # Average percentage of cache occupancy
system.l2.tags.occ_task_id_blocks::1024         32768                       # Occupied blocks per task id
system.l2.tags.age_task_id_blocks_1024::0           60                       # Occupied blocks per task id
system.l2.tags.age_task_id_blocks_1024::1           39                       # Occupied blocks per task id
system.l2.tags.age_task_id_blocks_1024::2          610                       # Occupied blocks per task id
system.l2.tags.age_task_id_blocks_1024::3         8334                       # Occupied blocks per task id
system.l2.tags.age_task_id_blocks_1024::4        23725                       # Occupied blocks per task id
system.l2.tags.occ_task_id_percent::1024            1                       # Percentage of cache occupancy per task id
system.l2.tags.tag_accesses                   9036683                       # Number of tag accesses
system.l2.tags.data_accesses                  9036683                       # Number of data accesses
system.cpu_voltage_domain.voltage                   1                       # Voltage in Volts
system.mem_ctrls.pwrStateResidencyTicks::UNDEFINED 158230665000                       # Cumulative time (in ticks) in various power states
system.mem_ctrls.bytes_read::.cpu.inst          42816                       # Number of bytes read from this memory
system.mem_ctrls.bytes_read::.cpu.data       12820736                       # Number of bytes read from this memory
system.mem_ctrls.bytes_read::total           12863552                       # Number of bytes read from this memory
system.mem_ctrls.bytes_inst_read::.cpu.inst        42816                       # Number of instructions bytes read from this memory
system.mem_ctrls.bytes_inst_read::total         42816                       # Number of instructions bytes read from this memory
system.mem_ctrls.bytes_written::.writebacks      7109760                       # Number of bytes written to this memory
system.mem_ctrls.bytes_written::total         7109760                       # Number of bytes written to this memory
system.mem_ctrls.num_reads::.cpu.inst             669                       # Number of read requests responded to by this memory
system.mem_ctrls.num_reads::.cpu.data          200324                       # Number of read requests responded to by this memory
system.mem_ctrls.num_reads::total              200993                       # Number of read requests responded to by this memory
system.mem_ctrls.num_writes::.writebacks       111090                       # Number of write requests responded to by this memory
system.mem_ctrls.num_writes::total             111090                       # Number of write requests responded to by this memory
system.mem_ctrls.bw_read::.cpu.inst            270592                       # Total read bandwidth from this memory (bytes/s)
system.mem_ctrls.bw_read::.cpu.data          81025609                       # Total read bandwidth from this memory (bytes/s)
system.mem_ctrls.bw_read::total              81296201                       # Total read bandwidth from this memory (bytes/s)
system.mem_ctrls.bw_inst_read::.cpu.inst       270592                       # Instruction read bandwidth from this memory (bytes/s)
system.mem_ctrls.bw_inst_read::total           270592                       # Instruction read bandwidth from this memory (bytes/s)
system.mem_ctrls.bw_write::.writebacks       44932883                       # Write bandwidth from this memory (bytes/s)
system.mem_ctrls.bw_write::total             44932883                       # Write bandwidth from this memory (bytes/s)
system.mem_ctrls.bw_total::.writebacks       44932883                       # Total bandwidth to/from this memory (bytes/s)
system.mem_ctrls.bw_total::.cpu.inst           270592                       # Total bandwidth to/from this memory (bytes/s)
system.mem_ctrls.bw_total::.cpu.data         81025609                       # Total bandwidth to/from this memory (bytes/s)
system.mem_ctrls.bw_total::total            126229085                       # Total bandwidth to/from this memory (bytes/s)
system.mem_ctrls.avgPriority_.writebacks::samples    111090.00                       # Average QoS priority value for accepted requests
system.mem_ctrls.avgPriority_.cpu.inst::samples       669.00                       # Average QoS priority value for accepted requests
system.mem_ctrls.avgPriority_.cpu.data::samples    200291.00                       # Average QoS priority value for accepted requests
system.mem_ctrls.priorityMinLatency      0.000000018750                       # per QoS priority minimum request to response latency (s)
system.mem_ctrls.priorityMaxLatency      0.005793230500                       # per QoS priority maximum request to response latency (s)
system.mem_ctrls.numReadWriteTurnArounds         6609                       # Number of turnarounds from READ to WRITE
system.mem_ctrls.numWriteReadTurnArounds         6609                       # Number of turnarounds from WRITE to READ
system.mem_ctrls.numStayReadState              544664                       # Number of times bus staying in READ state
system.mem_ctrls.numStayWriteState             104588                       # Number of times bus staying in WRITE state
system.mem_ctrls.readReqs                      200994                       # Number of read requests accepted
system.mem_ctrls.writeReqs                     111090                       # Number of write requests accepted
system.mem_ctrls.readBursts                    200994                       # Number of DRAM read bursts, including those serviced by the write queue
system.mem_ctrls.writeBursts                   111090                       # Number of DRAM write bursts, including those merged in the write queue
system.mem_ctrls.servicedByWrQ                     34                       # Number of DRAM read bursts serviced by the write queue
system.mem_ctrls.mergedWrBursts                     0                       # Number of DRAM write bursts merged with an existing one
system.mem_ctrls.neitherReadNorWriteReqs            0                       # Number of requests that are neither read nor write
system.mem_ctrls.perBankRdBursts::0             12842                       # Per bank write bursts
system.mem_ctrls.perBankRdBursts::1             12744                       # Per bank write bursts
system.mem_ctrls.perBankRdBursts::2             12822                       # Per bank write bursts
system.mem_ctrls.perBankRdBursts::3             12536                       # Per bank write bursts
system.mem_ctrls.perBankRdBursts::4             12511                       # Per bank write bursts
system.mem_ctrls.perBankRdBursts::5             12343                       # Per bank write bursts
system.mem_ctrls.perBankRdBursts::6             12295                       # Per bank write bursts
system.mem_ctrls.perBankRdBursts::7             12467                       # Per bank write bursts
system.mem_ctrls.perBankRdBursts::8             12452                       # Per bank write bursts
system.mem_ctrls.perBankRdBursts::9             12400                       # Per bank write bursts
system.mem_ctrls.perBankRdBursts::10            12451                       # Per bank write bursts
system.mem_ctrls.perBankRdBursts::11            12469                       # Per bank write bursts
system.mem_ctrls.perBankRdBursts::12            12637                       # Per bank write bursts
system.mem_ctrls.perBankRdBursts::13            12712                       # Per bank write bursts
system.mem_ctrls.perBankRdBursts::14            12665                       # Per bank write bursts
system.mem_ctrls.perBankRdBursts::15            12614                       # Per bank write bursts
system.mem_ctrls.perBankWrBursts::0              7136                       # Per bank write bursts
system.mem_ctrls.perBankWrBursts::1              7134                       # Per bank write bursts
system.mem_ctrls.perBankWrBursts::2              7162                       # Per bank write bursts
system.mem_ctrls.perBankWrBursts::3              6979                       # Per bank write bursts
system.mem_ctrls.perBankWrBursts::4              6977                       # Per bank write bursts
system.mem_ctrls.perBankWrBursts::5              6933                       # Per bank write bursts
system.mem_ctrls.perBankWrBursts::6              6826                       # Per bank write bursts
system.mem_ctrls.perBankWrBursts::7              6802                       # Per bank write bursts
system.mem_ctrls.perBankWrBursts::8              6794                       # Per bank write bursts
system.mem_ctrls.perBankWrBursts::9              6773                       # Per bank write bursts
system.mem_ctrls.perBankWrBursts::10             6863                       # Per bank write bursts
system.mem_ctrls.perBankWrBursts::11             6810                       # Per bank write bursts
system.mem_ctrls.perBankWrBursts::12             6901                       # Per bank write bursts
system.mem_ctrls.perBankWrBursts::13             6997                       # Per bank write bursts
system.mem_ctrls.perBankWrBursts::14             7010                       # Per bank write bursts
system.mem_ctrls.perBankWrBursts::15             6969                       # Per bank write bursts
system.mem_ctrls.avgRdQLen                       1.05                       # Average read queue length when enqueuing
system.mem_ctrls.avgWrQLen                      24.62                       # Average write queue length when enqueuing
system.mem_ctrls.totQLat                   2852331500                       # Total ticks spent queuing
system.mem_ctrls.totBusLat                 1004800000                       # Total ticks spent in databus transfers
system.mem_ctrls.totMemAccLat              6620331500                       # Total ticks spent from burst creation until serviced by the DRAM
system.mem_ctrls.avgQLat                     14193.53                       # Average queueing delay per DRAM burst
system.mem_ctrls.avgBusLat                    5000.00                       # Average bus latency per DRAM burst
system.mem_ctrls.avgMemAccLat                32943.53                       # Average memory access latency per DRAM burst
system.mem_ctrls.numRdRetry                         0                       # Number of times read queue was full causing retry
system.mem_ctrls.numWrRetry                         0                       # Number of times write queue was full causing retry
system.mem_ctrls.readRowHits                   131919                       # Number of row buffer hits during reads
system.mem_ctrls.writeRowHits                   69522                       # Number of row buffer hits during writes
system.mem_ctrls.readRowHitRate                 65.64                       # Row buffer hit rate for reads
system.mem_ctrls.writeRowHitRate                62.58                       # Row buffer hit rate for writes
system.mem_ctrls.readPktSize::0                     0                       # Read request sizes (log2)
system.mem_ctrls.readPktSize::1                     0                       # Read request sizes (log2)
system.mem_ctrls.readPktSize::2                     0                       # Read request sizes (log2)
system.mem_ctrls.readPktSize::3                     0                       # Read request sizes (log2)
system.mem_ctrls.readPktSize::4                     0                       # Read request sizes (log2)
system.mem_ctrls.readPktSize::5                     0                       # Read request sizes (log2)
system.mem_ctrls.readPktSize::6                200994                       # Read request sizes (log2)
system.mem_ctrls.writePktSize::0                    0                       # Write request sizes (log2)
system.mem_ctrls.writePktSize::1                    0                       # Write request sizes (log2)
system.mem_ctrls.writePktSize::2                    0                       # Write request sizes (log2)
system.mem_ctrls.writePktSize::3                    0                       # Write request sizes (log2)
system.mem_ctrls.writePktSize::4                    0                       # Write request sizes (log2)
system.mem_ctrls.writePktSize::5                    0                       # Write request sizes (log2)
system.mem_ctrls.writePktSize::6               111090                       # Write request sizes (log2)
system.mem_ctrls.rdQLenPdf::0                  152029                       # What read queue length does an incoming req see
system.mem_ctrls.rdQLenPdf::1                   48465                       # What read queue length does an incoming req see
system.mem_ctrls.rdQLenPdf::2                     288                       # What read queue length does an incoming req see
system.mem_ctrls.rdQLenPdf::3                     177                       # What read queue length does an incoming req see
system.mem_ctrls.rdQLenPdf::4                       1                       # What read queue length does an incoming req see
system.mem_ctrls.rdQLenPdf::5                       0                       # What read queue length does an incoming req see
system.mem_ctrls.rdQLenPdf::6                       0                       # What read queue length does an incoming req see
system.mem_ctrls.rdQLenPdf::7                       0                       # What read queue length does an incoming req see
system.mem_ctrls.rdQLenPdf::8                       0                       # What read queue length does an incoming req see
system.mem_ctrls.rdQLenPdf::9                       0                       # What read queue length does an incoming req see
system.mem_ctrls.rdQLenPdf::10                      0                       # What read queue length does an incoming req see
system.mem_ctrls.rdQLenPdf::11                      0                       # What read queue length does an incoming req see
system.mem_ctrls.rdQLenPdf::12                      0                       # What read queue length does an incoming req see
system.mem_ctrls.rdQLenPdf::13                      0                       # What read queue length does an incoming req see
system.mem_ctrls.rdQLenPdf::14                      0                       # What read queue length does an incoming req see
system.mem_ctrls.rdQLenPdf::15                      0                       # What read queue length does an incoming req see
system.mem_ctrls.rdQLenPdf::16                      0                       # What read queue length does an incoming req see
system.mem_ctrls.rdQLenPdf::17                      0                       # What read queue length does an incoming req see
system.mem_ctrls.rdQLenPdf::18                      0                       # What read queue length does an incoming req see
system.mem_ctrls.rdQLenPdf::19                      0                       # What read queue length does an incoming req see
system.mem_ctrls.rdQLenPdf::20                      0                       # What read queue length does an incoming req see
system.mem_ctrls.rdQLenPdf::21                      0                       # What read queue length does an incoming req see
system.mem_ctrls.rdQLenPdf::22                      0                       # What read queue length does an incoming req see
system.mem_ctrls.rdQLenPdf::23                      0                       # What read queue length does an incoming req see
system.mem_ctrls.rdQLenPdf::24                      0                       # What read queue length does an incoming req see
system.mem_ctrls.rdQLenPdf::25                      0                       # What read queue length does an incoming req see
system.mem_ctrls.rdQLenPdf::26                      0                       # What read queue length does an incoming req see
system.mem_ctrls.rdQLenPdf::27                      0                       # What read queue length does an incoming req see
system.mem_ctrls.rdQLenPdf::28                      0                       # What read queue length does an incoming req see
system.mem_ctrls.rdQLenPdf::29                      0                       # What read queue length does an incoming req see
system.mem_ctrls.rdQLenPdf::30                      0                       # What read queue length does an incoming req see
system.mem_ctrls.rdQLenPdf::31                      0                       # What read queue length does an incoming req see
system.mem_ctrls.wrQLenPdf::0                       1                       # What write queue length does an incoming req see
system.mem_ctrls.wrQLenPdf::1                       1                       # What write queue length does an incoming req see
system.mem_ctrls.wrQLenPdf::2                       1                       # What write queue length does an incoming req see
system.mem_ctrls.wrQLenPdf::3                       1                       # What write queue length does an incoming req see
system.mem_ctrls.wrQLenPdf::4                       1                       # What write queue length does an incoming req see
system.mem_ctrls.wrQLenPdf::5                       1                       # What write queue length does an incoming req see
system.mem_ctrls.wrQLenPdf::6                       1                       # What write queue length does an incoming req see
system.mem_ctrls.wrQLenPdf::7                       1                       # What write queue length does an incoming req see
system.mem_ctrls.wrQLenPdf::8                       1                       # What write queue length does an incoming req see
system.mem_ctrls.wrQLenPdf::9                       1                       # What write queue length does an incoming req see
system.mem_ctrls.wrQLenPdf::10                      1                       # What write queue length does an incoming req see
system.mem_ctrls.wrQLenPdf::11                      1                       # What write queue length does an incoming req see
system.mem_ctrls.wrQLenPdf::12                      1                       # What write queue length does an incoming req see
system.mem_ctrls.wrQLenPdf::13                      1                       # What write queue length does an incoming req see
system.mem_ctrls.wrQLenPdf::14                      1                       # What write queue length does an incoming req see
system.mem_ctrls.wrQLenPdf::15                   2491                       # What write queue length does an incoming req see
system.mem_ctrls.wrQLenPdf::16                   2592                       # What write queue length does an incoming req see
system.mem_ctrls.wrQLenPdf::17                   6280                       # What write queue length does an incoming req see
system.mem_ctrls.wrQLenPdf::18                   6614                       # What write queue length does an incoming req see
system.mem_ctrls.wrQLenPdf::19                   6654                       # What write queue length does an incoming req see
system.mem_ctrls.wrQLenPdf::20                   6661                       # What write queue length does an incoming req see
system.mem_ctrls.wrQLenPdf::21                   6704                       # What write queue length does an incoming req see
system.mem_ctrls.wrQLenPdf::22                   6671                       # What write queue length does an incoming req see
system.mem_ctrls.wrQLenPdf::23                   6683                       # What write queue length does an incoming req see
system.mem_ctrls.wrQLenPdf::24                   6660                       # What write queue length does an incoming req see
system.mem_ctrls.wrQLenPdf::25                   6639                       # What write queue length does an incoming req see
system.mem_ctrls.wrQLenPdf::26                   6646                       # What write queue length does an incoming req see
system.mem_ctrls.wrQLenPdf::27                   6636                       # What write queue length does an incoming req see
system.mem_ctrls.wrQLenPdf::28                   6630                       # What write queue length does an incoming req see
system.mem_ctrls.wrQLenPdf::29                   6640                       # What write queue length does an incoming req see
system.mem_ctrls.wrQLenPdf::30                   6615                       # What write queue length does an incoming req see
system.mem_ctrls.wrQLenPdf::31                   6645                       # What write queue length does an incoming req see
system.mem_ctrls.wrQLenPdf::32                   6609                       # What write queue length does an incoming req see
system.mem_ctrls.wrQLenPdf::33                      5                       # What write queue length does an incoming req see
system.mem_ctrls.wrQLenPdf::34                      0                       # What write queue length does an incoming req see
system.mem_ctrls.wrQLenPdf::35                      0                       # What write queue length does an incoming req see
system.mem_ctrls.wrQLenPdf::36                      0                       # What write queue length does an incoming req see
system.mem_ctrls.wrQLenPdf::37                      0                       # What write queue length does an incoming req see
system.mem_ctrls.wrQLenPdf::38                      0                       # What write queue length does an incoming req see
system.mem_ctrls.wrQLenPdf::39                      0                       # What write queue length does an incoming req see
system.mem_ctrls.wrQLenPdf::40                      0                       # What write queue length does an incoming req see
system.mem_ctrls.wrQLenPdf::41                      0                       # What write queue length does an incoming req see
system.mem_ctrls.wrQLenPdf::42                      0                       # What write queue length does an incoming req see
system.mem_ctrls.wrQLenPdf::43                      0                       # What write queue length does an incoming req see
system.mem_ctrls.wrQLenPdf::44                      0                       # What write queue length does an incoming req see
system.mem_ctrls.wrQLenPdf::45                      0                       # What write queue length does an incoming req see
system.mem_ctrls.wrQLenPdf::46                      0                       # What write queue length does an incoming req see
system.mem_ctrls.wrQLenPdf::47                      0                       # What write queue length does an incoming req see
system.mem_ctrls.wrQLenPdf::48                      0                       # What write queue length does an incoming req see
system.mem_ctrls.wrQLenPdf::49                      0                       # What write queue length does an incoming req see
system.mem_ctrls.wrQLenPdf::50                      0                       # What write queue length does an incoming req see
system.mem_ctrls.wrQLenPdf::51                      0                       # What write queue length does an incoming req see
system.mem_ctrls.wrQLenPdf::52                      0                       # What write queue length does an incoming req see
system.mem_ctrls.wrQLenPdf::53                      0                       # What write queue length does an incoming req see
system.mem_ctrls.wrQLenPdf::54                      0                       # What write queue length does an incoming req see
system.mem_ctrls.wrQLenPdf::55                      0                       # What write queue length does an incoming req see
system.mem_ctrls.wrQLenPdf::56                      0                       # What write queue length does an incoming req see
system.mem_ctrls.wrQLenPdf::57                      0                       # What write queue length does an incoming req see
system.mem_ctrls.wrQLenPdf::58                      0                       # What write queue length does an incoming req see
system.mem_ctrls.wrQLenPdf::59                      0                       # What write queue length does an incoming req see
system.mem_ctrls.wrQLenPdf::60                      0                       # What write queue length does an incoming req see
system.mem_ctrls.wrQLenPdf::61                      0                       # What write queue length does an incoming req see
system.mem_ctrls.wrQLenPdf::62                      0                       # What write queue length does an incoming req see
system.mem_ctrls.wrQLenPdf::63                      0                       # What write queue length does an incoming req see
system.mem_ctrls.bytesPerActivate::samples       110575                       # Bytes accessed per row activation
system.mem_ctrls.bytesPerActivate::mean    180.591996                       # Bytes accessed per row activation
system.mem_ctrls.bytesPerActivate::gmean   106.976865                       # Bytes accessed per row activation
system.mem_ctrls.bytesPerActivate::stdev   245.366790                       # Bytes accessed per row activation
system.mem_ctrls.bytesPerActivate::0-127        76758     69.42%     69.42% # Bytes accessed per row activation
system.mem_ctrls.bytesPerActivate::128-255        11553     10.45%     79.87% # Bytes accessed per row activation
system.mem_ctrls.bytesPerActivate::256-383         5143      4.65%     84.52% # Bytes accessed per row activation
system.mem_ctrls.bytesPerActivate::384-511         1499      1.36%     85.87% # Bytes accessed per row activation
system.mem_ctrls.bytesPerActivate::512-639         8565      7.75%     93.62% # Bytes accessed per row activation
system.mem_ctrls.bytesPerActivate::640-767          684      0.62%     94.24% # Bytes accessed per row activation
system.mem_ctrls.bytesPerActivate::768-895          495      0.45%     94.68% # Bytes accessed per row activation
system.mem_ctrls.bytesPerActivate::896-1023          416      0.38%     95.06% # Bytes accessed per row activation
system.mem_ctrls.bytesPerActivate::1024-1151         5462      4.94%    100.00% # Bytes accessed per row activation
system.mem_ctrls.bytesPerActivate::total       110575                       # Bytes accessed per row activation
system.mem_ctrls.rdPerTurnAround::samples         6609                       # Reads before turning the bus around for writes
system.mem_ctrls.rdPerTurnAround::mean      30.405659                       # Reads before turning the bus around for writes
system.mem_ctrls.rdPerTurnAround::gmean     23.921900                       # Reads before turning the bus around for writes
system.mem_ctrls.rdPerTurnAround::stdev     52.402887                       # Reads before turning the bus around for writes
system.mem_ctrls.rdPerTurnAround::0-127          6443     97.49%     97.49% # Reads before turning the bus around for writes
system.mem_ctrls.rdPerTurnAround::128-255           36      0.54%     98.03% # Reads before turning the bus around for writes
system.mem_ctrls.rdPerTurnAround::256-383          127      1.92%     99.95% # Reads before turning the bus around for writes
system.mem_ctrls.rdPerTurnAround::512-639            1      0.02%     99.97% # Reads before turning the bus around for writes
system.mem_ctrls.rdPerTurnAround::1664-1791            1      0.02%     99.98% # Reads before turning the bus around for writes
system.mem_ctrls.rdPerTurnAround::2432-2559            1      0.02%    100.00% # Reads before turning the bus around for writes
system.mem_ctrls.rdPerTurnAround::total          6609                       # Reads before turning the bus around for writes
system.mem_ctrls.wrPerTurnAround::samples         6609                       # Writes before turning the bus around for reads
system.mem_ctrls.wrPerTurnAround::mean      16.805266                       # Writes before turning the bus around for reads
[...]
system.cpu.icache.ReadReq_avg_miss_latency::total 97536.813922                       # average ReadReq miss latency
system.cpu.icache.ReadReq_mshr_misses::.cpu.inst          747                       # number of ReadReq MSHR misses
system.cpu.icache.ReadReq_mshr_misses::total          747                       # number of ReadReq MSHR misses
system.cpu.icache.ReadReq_mshr_miss_latency::.cpu.inst     71366000                       # number of ReadReq MSHR miss cycles
system.cpu.icache.ReadReq_mshr_miss_latency::total     71366000                       # number of ReadReq MSHR miss cycles
system.cpu.icache.ReadReq_mshr_miss_rate::.cpu.inst     0.000077                       # mshr miss rate for ReadReq accesses
system.cpu.icache.ReadReq_mshr_miss_rate::total     0.000077                       # mshr miss rate for ReadReq accesses
system.cpu.icache.ReadReq_avg_mshr_miss_latency::.cpu.inst 95536.813922                       # average ReadReq mshr miss latency
system.cpu.icache.ReadReq_avg_mshr_miss_latency::total 95536.813922                       # average ReadReq mshr miss latency
system.cpu.icache.tags.pwrStateResidencyTicks::UNDEFINED 158230665000                       # Cumulative time (in ticks) in various power states
system.cpu.icache.tags.tagsinuse           362.212065                       # Cycle average of tags in use
system.cpu.icache.tags.total_refs             9663252                       # Total number of references to valid blocks.
system.cpu.icache.tags.sampled_refs               747                       # Sample count of references to valid blocks.
system.cpu.icache.tags.avg_refs          12936.080321                       # Average number of references to valid blocks.
system.cpu.icache.tags.warmup_cycle            108000                       # Cycle when the warmup percentage was hit.
system.cpu.icache.tags.occ_blocks::.cpu.inst   362.212065                       # Average occupied blocks per requestor
system.cpu.icache.tags.occ_percent::.cpu.inst     0.707445                       # Average percentage of cache occupancy
system.cpu.icache.tags.occ_percent::total     0.707445                       # Average percentage of cache occupancy
system.cpu.icache.tags.occ_task_id_blocks::1024          445                       # Occupied blocks per task id
system.cpu.icache.tags.age_task_id_blocks_1024::4          445                       # Occupied blocks per task id
system.cpu.icache.tags.occ_task_id_percent::1024     0.869141                       # Percentage of cache occupancy per task id
system.cpu.icache.tags.tag_accesses          19327251                       # Number of tag accesses
system.cpu.icache.tags.data_accesses         19327251                       # Number of data accesses
system.cpu.dtb.walker.pwrStateResidencyTicks::UNDEFINED 158230665000                       # Cumulative time (in ticks) in various power states
system.cpu.dtb.stage2_mmu.stage2_tlb.walker.pwrStateResidencyTicks::UNDEFINED 158230665000                       # Cumulative time (in ticks) in various power states
system.cpu.dcache.pwrStateResidencyTicks::UNDEFINED 158230665000                       # Cumulative time (in ticks) in various power states
system.cpu.dcache.demand_hits::.cpu.data     51464297                       # number of demand (read+write) hits
system.cpu.dcache.demand_hits::total         51464297                       # number of demand (read+write) hits
system.cpu.dcache.overall_hits::.cpu.data     51464806                       # number of overall hits
system.cpu.dcache.overall_hits::total        51464806                       # number of overall hits
system.cpu.dcache.demand_misses::.cpu.data       597327                       # number of demand (read+write) misses
system.cpu.dcache.demand_misses::total         597327                       # number of demand (read+write) misses
system.cpu.dcache.overall_misses::.cpu.data       605237                       # number of overall misses
system.cpu.dcache.overall_misses::total        605237                       # number of overall misses
system.cpu.dcache.demand_miss_latency::.cpu.data  31898111000                       # number of demand (read+write) miss cycles
system.cpu.dcache.demand_miss_latency::total  31898111000                       # number of demand (read+write) miss cycles
system.cpu.dcache.overall_miss_latency::.cpu.data  31898111000                       # number of overall miss cycles
system.cpu.dcache.overall_miss_latency::total  31898111000                       # number of overall miss cycles
system.cpu.dcache.demand_accesses::.cpu.data     52061624                       # number of demand (read+write) accesses
system.cpu.dcache.demand_accesses::total     52061624                       # number of demand (read+write) accesses
system.cpu.dcache.overall_accesses::.cpu.data     52070043                       # number of overall (read+write) accesses
system.cpu.dcache.overall_accesses::total     52070043                       # number of overall (read+write) accesses
system.cpu.dcache.demand_miss_rate::.cpu.data     0.011473                       # miss rate for demand accesses
system.cpu.dcache.demand_miss_rate::total     0.011473                       # miss rate for demand accesses
system.cpu.dcache.overall_miss_rate::.cpu.data     0.011624                       # miss rate for overall accesses
system.cpu.dcache.overall_miss_rate::total     0.011624                       # miss rate for overall accesses
system.cpu.dcache.demand_avg_miss_latency::.cpu.data 53401.421667                       # average overall miss latency
system.cpu.dcache.demand_avg_miss_latency::total 53401.421667                       # average overall miss latency
system.cpu.dcache.overall_avg_miss_latency::.cpu.data 52703.504578                       # average overall miss latency
system.cpu.dcache.overall_avg_miss_latency::total 52703.504578                       # average overall miss latency
system.cpu.dcache.blocked_cycles::no_mshrs        98458                       # number of cycles access was blocked
system.cpu.dcache.blocked_cycles::no_targets            0                       # number of cycles access was blocked
system.cpu.dcache.blocked::no_mshrs              3424                       # number of cycles access was blocked
system.cpu.dcache.blocked::no_targets               0                       # number of cycles access was blocked
system.cpu.dcache.avg_blocked_cycles::no_mshrs    28.755257                       # average number of cycles each access was blocked
system.cpu.dcache.avg_blocked_cycles::no_targets          nan                       # average number of cycles each access was blocked
system.cpu.dcache.writebacks::.writebacks       477140                       # number of writebacks
system.cpu.dcache.writebacks::total            477140                       # number of writebacks
system.cpu.dcache.demand_mshr_hits::.cpu.data        52474                       # number of demand (read+write) MSHR hits
system.cpu.dcache.demand_mshr_hits::total        52474                       # number of demand (read+write) MSHR hits
system.cpu.dcache.overall_mshr_hits::.cpu.data        52474                       # number of overall MSHR hits
system.cpu.dcache.overall_mshr_hits::total        52474                       # number of overall MSHR hits
system.cpu.dcache.demand_mshr_misses::.cpu.data       544853                       # number of demand (read+write) MSHR misses
system.cpu.dcache.demand_mshr_misses::total       544853                       # number of demand (read+write) MSHR misses
system.cpu.dcache.overall_mshr_misses::.cpu.data       552758                       # number of overall MSHR misses
system.cpu.dcache.overall_mshr_misses::total       552758                       # number of overall MSHR misses
system.cpu.dcache.demand_mshr_miss_latency::.cpu.data  29148936000                       # number of demand (read+write) MSHR miss cycles
system.cpu.dcache.demand_mshr_miss_latency::total  29148936000                       # number of demand (read+write) MSHR miss cycles
system.cpu.dcache.overall_mshr_miss_latency::.cpu.data  29977637999                       # number of overall MSHR miss cycles
system.cpu.dcache.overall_mshr_miss_latency::total  29977637999                       # number of overall MSHR miss cycles
system.cpu.dcache.demand_mshr_miss_rate::.cpu.data     0.010466                       # mshr miss rate for demand accesses
system.cpu.dcache.demand_mshr_miss_rate::total     0.010466                       # mshr miss rate for demand accesses
system.cpu.dcache.overall_mshr_miss_rate::.cpu.data     0.010616                       # mshr miss rate for overall accesses
system.cpu.dcache.overall_mshr_miss_rate::total     0.010616                       # mshr miss rate for overall accesses
system.cpu.dcache.demand_avg_mshr_miss_latency::.cpu.data 53498.716167                       # average overall mshr miss latency
system.cpu.dcache.demand_avg_mshr_miss_latency::total 53498.716167                       # average overall mshr miss latency
system.cpu.dcache.overall_avg_mshr_miss_latency::.cpu.data 54232.843304                       # average overall mshr miss latency
system.cpu.dcache.overall_avg_mshr_miss_latency::total 54232.843304                       # average overall mshr miss latency
system.cpu.dcache.replacements                 550709                       # number of replacements
system.cpu.dcache.ReadReq_hits::.cpu.data     40809903                       # number of ReadReq hits
system.cpu.dcache.ReadReq_hits::total        40809903                       # number of ReadReq hits
system.cpu.dcache.ReadReq_misses::.cpu.data       301626                       # number of ReadReq misses
system.cpu.dcache.ReadReq_misses::total        301626                       # number of ReadReq misses
system.cpu.dcache.ReadReq_miss_latency::.cpu.data  12277643000                       # number of ReadReq miss cycles
system.cpu.dcache.ReadReq_miss_latency::total  12277643000                       # number of ReadReq miss cycles
system.cpu.dcache.ReadReq_accesses::.cpu.data     41111529                       # number of ReadReq accesses(hits+misses)
system.cpu.dcache.ReadReq_accesses::total     41111529                       # number of ReadReq accesses(hits+misses)
system.cpu.dcache.ReadReq_miss_rate::.cpu.data     0.007337                       # miss rate for ReadReq accesses
system.cpu.dcache.ReadReq_miss_rate::total     0.007337                       # miss rate for ReadReq accesses
system.cpu.dcache.ReadReq_avg_miss_latency::.cpu.data 40704.856345                       # average ReadReq miss latency
system.cpu.dcache.ReadReq_avg_miss_latency::total 40704.856345                       # average ReadReq miss latency
system.cpu.dcache.ReadReq_mshr_hits::.cpu.data          480                       # number of ReadReq MSHR hits
system.cpu.dcache.ReadReq_mshr_hits::total          480                       # number of ReadReq MSHR hits
system.cpu.dcache.ReadReq_mshr_misses::.cpu.data       301146                       # number of ReadReq MSHR misses
system.cpu.dcache.ReadReq_mshr_misses::total       301146                       # number of ReadReq MSHR misses
system.cpu.dcache.ReadReq_mshr_miss_latency::.cpu.data  11655391000                       # number of ReadReq MSHR miss cycles
system.cpu.dcache.ReadReq_mshr_miss_latency::total  11655391000                       # number of ReadReq MSHR miss cycles
system.cpu.dcache.ReadReq_mshr_miss_rate::.cpu.data     0.007325                       # mshr miss rate for ReadReq accesses
system.cpu.dcache.ReadReq_mshr_miss_rate::total     0.007325                       # mshr miss rate for ReadReq accesses
system.cpu.dcache.ReadReq_avg_mshr_miss_latency::.cpu.data 38703.456131                       # average ReadReq mshr miss latency
system.cpu.dcache.ReadReq_avg_mshr_miss_latency::total 38703.456131                       # average ReadReq mshr miss latency
system.cpu.dcache.WriteReq_hits::.cpu.data     10654394                       # number of WriteReq hits
system.cpu.dcache.WriteReq_hits::total       10654394                       # number of WriteReq hits
system.cpu.dcache.WriteReq_misses::.cpu.data       295701                       # number of WriteReq misses
system.cpu.dcache.WriteReq_misses::total       295701                       # number of WriteReq misses
system.cpu.dcache.WriteReq_miss_latency::.cpu.data  19620468000                       # number of WriteReq miss cycles
system.cpu.dcache.WriteReq_miss_latency::total  19620468000                       # number of WriteReq miss cycles
system.cpu.dcache.WriteReq_accesses::.cpu.data     10950095                       # number of WriteReq accesses(hits+misses)
system.cpu.dcache.WriteReq_accesses::total     10950095                       # number of WriteReq accesses(hits+misses)
system.cpu.dcache.WriteReq_miss_rate::.cpu.data     0.027004                       # miss rate for WriteReq accesses
system.cpu.dcache.WriteReq_miss_rate::total     0.027004                       # miss rate for WriteReq accesses
system.cpu.dcache.WriteReq_avg_miss_latency::.cpu.data 66352.389745                       # average WriteReq miss latency
system.cpu.dcache.WriteReq_avg_miss_latency::total 66352.389745                       # average WriteReq miss latency
system.cpu.dcache.WriteReq_mshr_hits::.cpu.data        51994                       # number of WriteReq MSHR hits
system.cpu.dcache.WriteReq_mshr_hits::total        51994                       # number of WriteReq MSHR hits
system.cpu.dcache.WriteReq_mshr_misses::.cpu.data       243707                       # number of WriteReq MSHR misses
system.cpu.dcache.WriteReq_mshr_misses::total       243707                       # number of WriteReq MSHR misses
system.cpu.dcache.WriteReq_mshr_miss_latency::.cpu.data  17493545000                       # number of WriteReq MSHR miss cycles
system.cpu.dcache.WriteReq_mshr_miss_latency::total  17493545000                       # number of WriteReq MSHR miss cycles
system.cpu.dcache.WriteReq_mshr_miss_rate::.cpu.data     0.022256                       # mshr miss rate for WriteReq accesses
system.cpu.dcache.WriteReq_mshr_miss_rate::total     0.022256                       # mshr miss rate for WriteReq accesses
system.cpu.dcache.WriteReq_avg_mshr_miss_latency::.cpu.data 71781.052657                       # average WriteReq mshr miss latency
system.cpu.dcache.WriteReq_avg_mshr_miss_latency::total 71781.052657                       # average WriteReq mshr miss latency
system.cpu.dcache.SoftPFReq_hits::.cpu.data          509                       # number of SoftPFReq hits
system.cpu.dcache.SoftPFReq_hits::total           509                       # number of SoftPFReq hits
system.cpu.dcache.SoftPFReq_misses::.cpu.data         7910                       # number of SoftPFReq misses
system.cpu.dcache.SoftPFReq_misses::total         7910                       # number of SoftPFReq misses
system.cpu.dcache.SoftPFReq_accesses::.cpu.data         8419                       # number of SoftPFReq accesses(hits+misses)
system.cpu.dcache.SoftPFReq_accesses::total         8419                       # number of SoftPFReq accesses(hits+misses)
system.cpu.dcache.SoftPFReq_miss_rate::.cpu.data     0.939542                       # miss rate for SoftPFReq accesses
system.cpu.dcache.SoftPFReq_miss_rate::total     0.939542                       # miss rate for SoftPFReq accesses
system.cpu.dcache.SoftPFReq_mshr_misses::.cpu.data         7905                       # number of SoftPFReq MSHR misses
system.cpu.dcache.SoftPFReq_mshr_misses::total         7905                       # number of SoftPFReq MSHR misses
system.cpu.dcache.SoftPFReq_mshr_miss_latency::.cpu.data    828701999                       # number of SoftPFReq MSHR miss cycles
system.cpu.dcache.SoftPFReq_mshr_miss_latency::total    828701999                       # number of SoftPFReq MSHR miss cycles
system.cpu.dcache.SoftPFReq_mshr_miss_rate::.cpu.data     0.938948                       # mshr miss rate for SoftPFReq accesses
system.cpu.dcache.SoftPFReq_mshr_miss_rate::total     0.938948                       # mshr miss rate for SoftPFReq accesses
system.cpu.dcache.SoftPFReq_avg_mshr_miss_latency::.cpu.data 104832.637445                       # average SoftPFReq mshr miss latency
system.cpu.dcache.SoftPFReq_avg_mshr_miss_latency::total 104832.637445                       # average SoftPFReq mshr miss latency
system.cpu.dcache.LoadLockedReq_hits::.cpu.data           38                       # number of LoadLockedReq hits
system.cpu.dcache.LoadLockedReq_hits::total           38                       # number of LoadLockedReq hits
system.cpu.dcache.LoadLockedReq_accesses::.cpu.data           38                       # number of LoadLockedReq accesses(hits+misses)
system.cpu.dcache.LoadLockedReq_accesses::total           38                       # number of LoadLockedReq accesses(hits+misses)
system.cpu.dcache.StoreCondReq_hits::.cpu.data           38                       # number of StoreCondReq hits
system.cpu.dcache.StoreCondReq_hits::total           38                       # number of StoreCondReq hits
system.cpu.dcache.StoreCondReq_accesses::.cpu.data           38                       # number of StoreCondReq accesses(hits+misses)
system.cpu.dcache.StoreCondReq_accesses::total           38                       # number of StoreCondReq accesses(hits+misses)
system.cpu.dcache.tags.pwrStateResidencyTicks::UNDEFINED 158230665000                       # Cumulative time (in ticks) in various power states
system.cpu.dcache.tags.tagsinuse          2022.816676                       # Cycle average of tags in use
system.cpu.dcache.tags.total_refs            52017639                       # Total number of references to valid blocks.
system.cpu.dcache.tags.sampled_refs            552757                       # Sample count of references to valid blocks.
system.cpu.dcache.tags.avg_refs             94.105799                       # Average number of references to valid blocks.
system.cpu.dcache.tags.warmup_cycle            223000                       # Cycle when the warmup percentage was hit.
system.cpu.dcache.tags.occ_blocks::.cpu.data  2022.816676                       # Average occupied blocks per requestor
system.cpu.dcache.tags.occ_percent::.cpu.data     0.987703                       # Average percentage of cache occupancy
system.cpu.dcache.tags.occ_percent::total     0.987703                       # Average percentage of cache occupancy
system.cpu.dcache.tags.occ_task_id_blocks::1024         2048                       # Occupied blocks per task id
system.cpu.dcache.tags.age_task_id_blocks_1024::0          143                       # Occupied blocks per task id
system.cpu.dcache.tags.age_task_id_blocks_1024::1          366                       # Occupied blocks per task id
system.cpu.dcache.tags.age_task_id_blocks_1024::2         1348                       # Occupied blocks per task id
system.cpu.dcache.tags.age_task_id_blocks_1024::3          190                       # Occupied blocks per task id
system.cpu.dcache.tags.age_task_id_blocks_1024::4            1                       # Occupied blocks per task id
system.cpu.dcache.tags.occ_task_id_percent::1024            1                       # Percentage of cache occupancy per task id
system.cpu.dcache.tags.tag_accesses         104692995                       # Number of tag accesses
system.cpu.dcache.tags.data_accesses        104692995                       # Number of data accesses
system.cpu.itb.walker.pwrStateResidencyTicks::UNDEFINED 158230665000                       # Cumulative time (in ticks) in various power states
system.cpu.itb.stage2_mmu.stage2_tlb.walker.pwrStateResidencyTicks::UNDEFINED 158230665000                       # Cumulative time (in ticks) in various power states

---------- End Simulation Statistics   ----------
