
---------- Begin Simulation Statistics ----------
final_tick                               704063229000                       # Number of ticks from beginning of simulation (restored from checkpoints and never reset)
host_inst_rate                                 333532                       # Simulator instruction rate (inst/s)
host_mem_usage                                 706144                       # Number of bytes of host memory used
host_op_rate                                   614281                       # Simulator op (including micro ops) rate (op/s)
host_seconds                                   299.82                       # Real time elapsed on the host
host_tick_rate                             2348274269                       # Simulator tick rate (ticks/s)
sim_freq                                 1000000000000                       # Frequency of simulated ticks
sim_insts                                   100000001                       # Number of instructions simulated
sim_ops                                     184174809                       # Number of ops (including micro ops) simulated
sim_seconds                                  0.704063                       # Number of seconds simulated
sim_ticks                                704063229000                       # Number of ticks simulated
system.cpu.branchPred.BTBCorrect                    0                       # Number of correct BTB predictions (this stat may not work properly.
system.cpu.branchPred.BTBHitPct             99.956992                       # BTB Hit Percentage
system.cpu.branchPred.BTBHits                10560996                       # Number of BTB hits
system.cpu.branchPred.BTBLookups             10565540                       # Number of BTB lookups
system.cpu.branchPred.RASInCorrect                  5                       # Number of incorrect RAS predictions.
system.cpu.branchPred.condIncorrect              1455                       # Number of conditional branches incorrect
system.cpu.branchPred.condPredicted          10562054                       # Number of conditional branches predicted
system.cpu.branchPred.indirectHits                 27                       # Number of indirect target hits.
system.cpu.branchPred.indirectLookups             195                       # Number of indirect predictor lookups.
system.cpu.branchPred.indirectMisses              168                       # Number of indirect misses.
system.cpu.branchPred.lookups                10570245                       # Number of BP lookups
system.cpu.branchPred.usedRAS                    2718                       # Number of times the RAS was used to get a target.
system.cpu.branchPredindirectMispredicted           99                       # Number of mispredicted indirect branches.
system.cpu.committedInsts                   100000001                       # Number of instructions committed
system.cpu.committedOps                     184174809                       # Number of ops (including micro ops) committed
system.cpu.cpi                               7.040632                       # CPI: cycles per instruction
system.cpu.discardedOps                          4286                       # Number of ops (including micro ops) which were discarded before commit
system.cpu.dtb.accesses                             0                       # DTB accesses
system.cpu.dtb.align_faults                         0                       # Number of TLB faults due to alignment restrictions
system.cpu.dtb.domain_faults                        0                       # Number of TLB faults due to domain restrictions
system.cpu.dtb.flush_entries                        0                       # Number of entries that have been flushed from TLB
system.cpu.dtb.flush_tlb                            0                       # Number of times complete TLB was flushed
system.cpu.dtb.flush_tlb_asid                       0                       # Number of times TLB was flushed by ASID
system.cpu.dtb.flush_tlb_mva                        0                       # Number of times TLB was flushed by MVA
system.cpu.dtb.flush_tlb_mva_asid                   0                       # Number of times TLB was flushed by MVA & ASID
system.cpu.dtb.hits                                 0                       # DTB hits
system.cpu.dtb.inst_accesses                        0                       # ITB inst accesses
system.cpu.dtb.inst_hits                            0                       # ITB inst hits
system.cpu.dtb.inst_misses                          0                       # ITB inst misses
system.cpu.dtb.misses                               0                       # DTB misses
system.cpu.dtb.perms_faults                         0                       # Number of TLB faults due to permissions restrictions
system.cpu.dtb.prefetch_faults                      0                       # Number of TLB faults due to prefetch
system.cpu.dtb.read_accesses                        0                       # DTB read accesses
system.cpu.dtb.read_hits                            0                       # DTB read hits
system.cpu.dtb.read_misses                          0                       # DTB read misses
system.cpu.dtb.stage2_mmu.stage2_tlb.accesses            0                       # DTB accesses
system.cpu.dtb.stage2_mmu.stage2_tlb.align_faults            0                       # Number of TLB faults due to alignment restrictions
system.cpu.dtb.stage2_mmu.stage2_tlb.domain_faults            0                       # Number of TLB faults due to domain restrictions
system.cpu.dtb.stage2_mmu.stage2_tlb.flush_entries            0                       # Number of entries that have been flushed from TLB
system.cpu.dtb.stage2_mmu.stage2_tlb.flush_tlb            0                       # Number of times complete TLB was flushed
system.cpu.dtb.stage2_mmu.stage2_tlb.flush_tlb_asid            0                       # Number of times TLB was flushed by ASID
system.cpu.dtb.stage2_mmu.stage2_tlb.flush_tlb_mva            0                       # Number of times TLB was flushed by MVA
system.cpu.dtb.stage2_mmu.stage2_tlb.flush_tlb_mva_asid            0                       # Number of times TLB was flushed by MVA & ASID
system.cpu.dtb.stage2_mmu.stage2_tlb.hits            0                       # DTB hits
system.cpu.dtb.stage2_mmu.stage2_tlb.inst_accesses            0                       # ITB inst accesses
system.cpu.dtb.stage2_mmu.stage2_tlb.inst_hits            0                       # ITB inst hits
system.cpu.dtb.stage2_mmu.stage2_tlb.inst_misses            0                       # ITB inst misses
system.cpu.dtb.stage2_mmu.stage2_tlb.misses            0                       # DTB misses
system.cpu.dtb.stage2_mmu.stage2_tlb.perms_faults            0                       # Number of TLB faults due to permissions restrictions
system.cpu.dtb.stage2_mmu.stage2_tlb.prefetch_faults            0                       # Number of TLB faults due to prefetch
system.cpu.dtb.stage2_mmu.stage2_tlb.read_accesses            0                       # DTB read accesses
system.cpu.dtb.stage2_mmu.stage2_tlb.read_hits            0                       # DTB read hits
system.cpu.dtb.stage2_mmu.stage2_tlb.read_misses            0                       # DTB read misses
system.cpu.dtb.stage2_mmu.stage2_tlb.walker.walkRequestOrigin_Requested::Data            0                       # Table walker requests started/completed, data/inst
system.cpu.dtb.stage2_mmu.stage2_tlb.walker.walkRequestOrigin_Requested::Inst            0                       # Table walker requests started/completed, data/inst
system.cpu.dtb.stage2_mmu.stage2_tlb.walker.walkRequestOrigin_Requested::total            0                       # Table walker requests started/completed, data/inst
system.cpu.dtb.stage2_mmu.stage2_tlb.walker.walkRequestOrigin_Completed::Data            0                       # Table walker requests started/completed, data/inst
system.cpu.dtb.stage2_mmu.stage2_tlb.walker.walkRequestOrigin_Completed::Inst            0                       # Table walker requests started/completed, data/inst
system.cpu.dtb.stage2_mmu.stage2_tlb.walker.walkRequestOrigin_Completed::total            0                       # Table walker requests started/completed, data/inst
system.cpu.dtb.stage2_mmu.stage2_tlb.walker.walkRequestOrigin::total            0                       # Table walker requests started/completed, data/inst
system.cpu.dtb.stage2_mmu.stage2_tlb.walker.walks            0                       # Table walker walks requested
system.cpu.dtb.stage2_mmu.stage2_tlb.write_accesses            0                       # DTB write accesses
system.cpu.dtb.stage2_mmu.stage2_tlb.write_hits            0                       # DTB write hits
system.cpu.dtb.stage2_mmu.stage2_tlb.write_misses            0                       # DTB write misses
system.cpu.dtb.walker.walkRequestOrigin_Requested::Data            0                       # Table walker requests started/completed, data/inst
system.cpu.dtb.walker.walkRequestOrigin_Requested::Inst            0                       # Table walker requests started/completed, data/inst
system.cpu.dtb.walker.walkRequestOrigin_Requested::total            0                       # Table walker requests started/completed, data/inst
system.cpu.dtb.walker.walkRequestOrigin_Completed::Data            0                       # Table walker requests started/completed, data/inst
system.cpu.dtb.walker.walkRequestOrigin_Completed::Inst            0                       # Table walker requests started/completed, data/inst
system.cpu.dtb.walker.walkRequestOrigin_Completed::total            0                       # Table walker requests started/completed, data/inst
system.cpu.dtb.walker.walkRequestOrigin::total            0                       # Table walker requests started/completed, data/inst
system.cpu.dtb.walker.walks                         0                       # Table walker walks requested
system.cpu.dtb.write_accesses                       0                       # DTB write accesses
system.cpu.dtb.write_hits                           0                       # DTB write hits
system.cpu.dtb.write_misses                         0                       # DTB write misses
system.cpu.fetch2.amo_instructions                  0                       # Number of memory atomic instructions successfully decoded
system.cpu.fetch2.fp_instructions                   0                       # Number of floating point instructions successfully decoded
system.cpu.fetch2.int_instructions           44894867                       # Number of integer instructions successfully decoded
system.cpu.fetch2.load_instructions           2086308                       # Number of memory load instructions successfully decoded
system.cpu.fetch2.store_instructions           169082                       # Number of memory store instructions successfully decoded
system.cpu.fetch2.vec_instructions                  0                       # Number of SIMD instructions successfully decoded
system.cpu.idleCycles                       482859578                       # Total number of cycles that the object has spent stopped
system.cpu.ipc                               0.142033                       # IPC: instructions per cycle
system.cpu.itb.accesses                             0                       # DTB accesses
system.cpu.itb.align_faults                         0                       # Number of TLB faults due to alignment restrictions
system.cpu.itb.domain_faults                        0                       # Number of TLB faults due to domain restrictions
system.cpu.itb.flush_entries                        0                       # Number of entries that have been flushed from TLB
system.cpu.itb.flush_tlb                            0                       # Number of times complete TLB was flushed
system.cpu.itb.flush_tlb_asid                       0                       # Number of times TLB was flushed by ASID
system.cpu.itb.flush_tlb_mva                        0                       # Number of times TLB was flushed by MVA
system.cpu.itb.flush_tlb_mva_asid                   0                       # Number of times TLB was flushed by MVA & ASID
system.cpu.itb.hits                                 0                       # DTB hits
system.cpu.itb.inst_accesses                        0                       # ITB inst accesses
system.cpu.itb.inst_hits                            0                       # ITB inst hits
system.cpu.itb.inst_misses                          0                       # ITB inst misses
system.cpu.itb.misses                               0                       # DTB misses
system.cpu.itb.perms_faults                         0                       # Number of TLB faults due to permissions restrictions
system.cpu.itb.prefetch_faults                      0                       # Number of TLB faults due to prefetch
system.cpu.itb.read_accesses                        0                       # DTB read accesses
system.cpu.itb.read_hits                            0                       # DTB read hits
system.cpu.itb.read_misses                          0                       # DTB read misses
system.cpu.itb.stage2_mmu.stage2_tlb.accesses            0                       # DTB accesses
system.cpu.itb.stage2_mmu.stage2_tlb.align_faults            0                       # Number of TLB faults due to alignment restrictions
system.cpu.itb.stage2_mmu.stage2_tlb.domain_faults            0                       # Number of TLB faults due to domain restrictions
system.cpu.itb.stage2_mmu.stage2_tlb.flush_entries            0                       # Number of entries that have been flushed from TLB
system.cpu.itb.stage2_mmu.stage2_tlb.flush_tlb            0                       # Number of times complete TLB was flushed
system.cpu.itb.stage2_mmu.stage2_tlb.flush_tlb_asid            0                       # Number of times TLB was flushed by ASID
system.cpu.itb.stage2_mmu.stage2_tlb.flush_tlb_mva            0                       # Number of times TLB was flushed by MVA
system.cpu.itb.stage2_mmu.stage2_tlb.flush_tlb_mva_asid            0                       # Number of times TLB was flushed by MVA & ASID
system.cpu.itb.stage2_mmu.stage2_tlb.hits            0                       # DTB hits
system.cpu.itb.stage2_mmu.stage2_tlb.inst_accesses            0                       # ITB inst accesses
system.cpu.itb.stage2_mmu.stage2_tlb.inst_hits            0                       # ITB inst hits
system.cpu.itb.stage2_mmu.stage2_tlb.inst_misses            0                       # ITB inst misses
system.cpu.itb.stage2_mmu.stage2_tlb.misses            0                       # DTB misses
system.cpu.itb.stage2_mmu.stage2_tlb.perms_faults            0                       # Number of TLB faults due to permissions restrictions
system.cpu.itb.stage2_mmu.stage2_tlb.prefetch_faults            0                       # Number of TLB faults due to prefetch
system.cpu.itb.stage2_mmu.stage2_tlb.read_accesses            0                       # DTB read accesses
system.cpu.itb.stage2_mmu.stage2_tlb.read_hits            0                       # DTB read hits
system.cpu.itb.stage2_mmu.stage2_tlb.read_misses            0                       # DTB read misses
system.cpu.itb.stage2_mmu.stage2_tlb.walker.walkRequestOrigin_Requested::Data            0                       # Table walker requests started/completed, data/inst
system.cpu.itb.stage2_mmu.stage2_tlb.walker.walkRequestOrigin_Requested::Inst            0                       # Table walker requests started/completed, data/inst
system.cpu.itb.stage2_mmu.stage2_tlb.walker.walkRequestOrigin_Requested::total            0                       # Table walker requests started/completed, data/inst
system.cpu.itb.stage2_mmu.stage2_tlb.walker.walkRequestOrigin_Completed::Data            0                       # Table walker requests started/completed, data/inst
system.cpu.itb.stage2_mmu.stage2_tlb.walker.walkRequestOrigin_Completed::Inst            0                       # Table walker requests started/completed, data/inst
system.cpu.itb.stage2_mmu.stage2_tlb.walker.walkRequestOrigin_Completed::total            0                       # Table walker requests started/completed, data/inst
system.cpu.itb.stage2_mmu.stage2_tlb.walker.walkRequestOrigin::total            0                       # Table walker requests started/completed, data/inst
system.cpu.itb.stage2_mmu.stage2_tlb.walker.walks            0                       # Table walker walks requested
system.cpu.itb.stage2_mmu.stage2_tlb.write_accesses            0                       # DTB write accesses
system.cpu.itb.stage2_mmu.stage2_tlb.write_hits            0                       # DTB write hits
system.cpu.itb.stage2_mmu.stage2_tlb.write_misses            0                       # DTB write misses
system.cpu.itb.walker.walkRequestOrigin_Requested::Data            0                       # Table walker requests started/completed, data/inst
system.cpu.itb.walker.walkRequestOrigin_Requested::Inst            0                       # Table walker requests started/completed, data/inst
system.cpu.itb.walker.walkRequestOrigin_Requested::total            0                       # Table walker requests started/completed, data/inst
system.cpu.itb.walker.walkRequestOrigin_Completed::Data            0                       # Table walker requests started/completed, data/inst
system.cpu.itb.walker.walkRequestOrigin_Completed::Inst            0                       # Table walker requests started/completed, data/inst
system.cpu.itb.walker.walkRequestOrigin_Completed::total            0                       # Table walker requests started/completed, data/inst
system.cpu.itb.walker.walkRequestOrigin::total            0                       # Table walker requests started/completed, data/inst
system.cpu.itb.walker.walks                         0                       # Table walker walks requested
system.cpu.itb.write_accesses                       0                       # DTB write accesses
system.cpu.itb.write_hits                           0                       # DTB write hits
system.cpu.itb.write_misses                         0                       # DTB write misses
system.cpu.numCycles                        704063229                       # number of cpu cycles simulated
system.cpu.numFetchSuspends                         0                       # Number of times Execute suspended instruction fetching
system.cpu.numWorkItemsCompleted                    0                       # number of work items this cpu completed
system.cpu.numWorkItemsStarted                      0                       # number of work items this cpu started
system.cpu.op_class_0::No_OpClass                   0      0.00%      0.00% # Class of committed instruction
system.cpu.op_class_0::IntAlu                97640484     53.02%     53.02% # Class of committed instruction
system.cpu.op_class_0::IntMult                 114699      0.06%     53.08% # Class of committed instruction
system.cpu.op_class_0::IntDiv                       0      0.00%     53.08% # Class of committed instruction
system.cpu.op_class_0::FloatAdd                     0      0.00%     53.08% # Class of committed instruction
system.cpu.op_class_0::FloatCmp                     0      0.00%     53.08% # Class of committed instruction
system.cpu.op_class_0::FloatCvt                     0      0.00%     53.08% # Class of committed instruction
system.cpu.op_class_0::FloatMult                    0      0.00%     53.08% # Class of committed instruction
system.cpu.op_class_0::FloatMultAcc                 0      0.00%     53.08% # Class of committed instruction
system.cpu.op_class_0::FloatDiv                     0      0.00%     53.08% # Class of committed instruction
system.cpu.op_class_0::FloatMisc                    0      0.00%     53.08% # Class of committed instruction
system.cpu.op_class_0::FloatSqrt                    0      0.00%     53.08% # Class of committed instruction
system.cpu.op_class_0::SimdAdd                      8      0.00%     53.08% # Class of committed instruction
system.cpu.op_class_0::SimdAddAcc                   0      0.00%     53.08% # Class of committed instruction
system.cpu.op_class_0::SimdAlu                      8      0.00%     53.08% # Class of committed instruction
system.cpu.op_class_0::SimdCmp                      6      0.00%     53.08% # Class of committed instruction
system.cpu.op_class_0::SimdCvt                      0      0.00%     53.08% # Class of committed instruction
system.cpu.op_class_0::SimdMisc                     1      0.00%     53.08% # Class of committed instruction
system.cpu.op_class_0::SimdMult                     0      0.00%     53.08% # Class of committed instruction
system.cpu.op_class_0::SimdMultAcc                  0      0.00%     53.08% # Class of committed instruction
system.cpu.op_class_0::SimdShift                    0      0.00%     53.08% # Class of committed instruction
system.cpu.op_class_0::SimdShiftAcc                 0      0.00%     53.08% # Class of committed instruction
system.cpu.op_class_0::SimdDiv                      0      0.00%     53.08% # Class of committed instruction
system.cpu.op_class_0::SimdSqrt                     0      0.00%     53.08% # Class of committed instruction
system.cpu.op_class_0::SimdFloatAdd                 0      0.00%     53.08% # Class of committed instruction
system.cpu.op_class_0::SimdFloatAlu                 0      0.00%     53.08% # Class of committed instruction
system.cpu.op_class_0::SimdFloatCmp                 0      0.00%     53.08% # Class of committed instruction
system.cpu.op_class_0::SimdFloatCvt                 0      0.00%     53.08% # Class of committed instruction
system.cpu.op_class_0::SimdFloatDiv                 0      0.00%     53.08% # Class of committed instruction
system.cpu.op_class_0::SimdFloatMisc               23      0.00%     53.08% # Class of committed instruction
system.cpu.op_class_0::SimdFloatMult                0      0.00%     53.08% # Class of committed instruction
system.cpu.op_class_0::SimdFloatMultAcc             0      0.00%     53.08% # Class of committed instruction
system.cpu.op_class_0::SimdFloatSqrt                0      0.00%     53.08% # Class of committed instruction
system.cpu.op_class_0::SimdReduceAdd                0      0.00%     53.08% # Class of committed instruction
system.cpu.op_class_0::SimdReduceAlu                0      0.00%     53.08% # Class of committed instruction
system.cpu.op_class_0::SimdReduceCmp                0      0.00%     53.08% # Class of committed instruction
system.cpu.op_class_0::SimdFloatReduceAdd            0      0.00%     53.08% # Class of committed instruction
system.cpu.op_class_0::SimdFloatReduceCmp            0      0.00%     53.08% # Class of committed instruction
system.cpu.op_class_0::SimdAes                      0      0.00%     53.08% # Class of committed instruction
system.cpu.op_class_0::SimdAesMix                   0      0.00%     53.08% # Class of committed instruction
system.cpu.op_class_0::SimdSha1Hash                 0      0.00%     53.08% # Class of committed instruction
system.cpu.op_class_0::SimdSha1Hash2                0      0.00%     53.08% # Class of committed instruction
system.cpu.op_class_0::SimdSha256Hash               0      0.00%     53.08% # Class of committed instruction
system.cpu.op_class_0::SimdSha256Hash2              0      0.00%     53.08% # Class of committed instruction
system.cpu.op_class_0::SimdShaSigma2                0      0.00%     53.08% # Class of committed instruction
system.cpu.op_class_0::SimdShaSigma3                0      0.00%     53.08% # Class of committed instruction
system.cpu.op_class_0::SimdPredAlu                  0      0.00%     53.08% # Class of committed instruction
system.cpu.op_class_0::MemRead                2082680      1.13%     54.21% # Class of committed instruction
system.cpu.op_class_0::MemWrite              84336900     45.79%    100.00% # Class of committed instruction
system.cpu.op_class_0::FloatMemRead                 0      0.00%    100.00% # Class of committed instruction
system.cpu.op_class_0::FloatMemWrite                0      0.00%    100.00% # Class of committed instruction
system.cpu.op_class_0::IprAccess                    0      0.00%    100.00% # Class of committed instruction
system.cpu.op_class_0::InstPrefetch                 0      0.00%    100.00% # Class of committed instruction
system.cpu.op_class_0::total                184174809                       # Class of committed instruction
system.cpu.tickCycles                       221203651                       # Number of cycles that the object actually ticked
system.cpu.workload.numSyscalls                    18                       # Number of system calls
system.membus.snoop_filter.hit_multi_requests            0                       # Number of requests hitting in the snoop filter with multiple (>1) holders of the requested data.
system.membus.snoop_filter.hit_multi_snoops            0                       # Number of snoops hitting in the snoop filter with multiple (>1) holders of the requested data.
system.membus.snoop_filter.hit_single_requests      5230698                       # Number of requests hitting in the snoop filter with a single holder of the requested data.
system.membus.snoop_filter.hit_single_snoops            0                       # Number of snoops hitting in the snoop filter with a single holder of the requested data.
system.membus.snoop_filter.tot_requests      10494583                       # Total number of requests made to the snoop filter.
system.membus.snoop_filter.tot_snoops               0                       # Total number of snoops made to the snoop filter.
system.tol2bus.snoop_filter.hit_multi_requests           62                       # Number of requests hitting in the snoop filter with multiple (>1) holders of the requested data.
system.tol2bus.snoop_filter.hit_multi_snoops            0                       # Number of snoops hitting in the snoop filter with multiple (>1) holders of the requested data.
system.tol2bus.snoop_filter.hit_single_requests      5263393                       # Number of requests hitting in the snoop filter with a single holder of the requested data.
system.tol2bus.snoop_filter.hit_single_snoops          537                       # Number of snoops hitting in the snoop filter with a single holder of the requested data.
system.tol2bus.snoop_filter.tot_requests     10527728                       # Total number of requests made to the snoop filter.
system.tol2bus.snoop_filter.tot_snoops            537                       # Total number of snoops made to the snoop filter.
system.membus.pwrStateResidencyTicks::UNDEFINED 704063229000                       # Cumulative time (in ticks) in various power states
system.membus.trans_dist::ReadResp                873                       # Transaction distribution
system.membus.trans_dist::WritebackDirty      5230284                       # Transaction distribution
system.membus.trans_dist::CleanEvict              403                       # Transaction distribution
system.membus.trans_dist::ReadExReq           5263023                       # Transaction distribution
system.membus.trans_dist::ReadExResp          5263023                       # Transaction distribution
system.membus.trans_dist::ReadSharedReq           873                       # Transaction distribution
system.membus.pkt_count_system.l2.mem_side::system.mem_ctrls.port     15758479                       # Packet count per connected master and slave (bytes)
system.membus.pkt_count::total               15758479                       # Packet count per connected master and slave (bytes)
system.membus.pkt_size_system.l2.mem_side::system.mem_ctrls.port    671627520                       # Cumulative packet size per connected master and slave (bytes)
system.membus.pkt_size::total               671627520                       # Cumulative packet size per connected master and slave (bytes)
system.membus.snoops                                0                       # Total snoops (count)
system.membus.snoopTraffic                          0                       # Total snoop traffic (bytes)
system.membus.snoop_fanout::samples           5263896                       # Request fanout histogram
system.membus.snoop_fanout::mean                    0                       # Request fanout histogram
system.membus.snoop_fanout::stdev                   0                       # Request fanout histogram
system.membus.snoop_fanout::underflows              0      0.00%      0.00% # Request fanout histogram
system.membus.snoop_fanout::0                 5263896    100.00%    100.00% # Request fanout histogram
system.membus.snoop_fanout::1                       0      0.00%    100.00% # Request fanout histogram
system.membus.snoop_fanout::overflows               0      0.00%    100.00% # Request fanout histogram
system.membus.snoop_fanout::min_value               0                       # Request fanout histogram
system.membus.snoop_fanout::max_value               0                       # Request fanout histogram
system.membus.snoop_fanout::total             5263896                       # Request fanout histogram
system.membus.respLayer1.occupancy        27692895750                       # Layer occupancy (ticks)
system.membus.respLayer1.utilization              3.9                       # Layer utilization (%)
system.membus.reqLayer0.occupancy         31415719000                       # Layer occupancy (ticks)
system.membus.reqLayer0.utilization               4.5                       # Layer utilization (%)
system.tol2bus.pwrStateResidencyTicks::UNDEFINED 704063229000                       # Cumulative time (in ticks) in various power states
system.tol2bus.trans_dist::ReadResp              1151                       # Transaction distribution
system.tol2bus.trans_dist::WritebackDirty     10493046                       # Transaction distribution
system.tol2bus.trans_dist::WritebackClean          219                       # Transaction distribution
system.tol2bus.trans_dist::CleanEvict            1352                       # Transaction distribution
system.tol2bus.trans_dist::ReadExReq          5263184                       # Transaction distribution
system.tol2bus.trans_dist::ReadExResp         5263184                       # Transaction distribution
system.tol2bus.trans_dist::ReadCleanReq           649                       # Transaction distribution
system.tol2bus.trans_dist::ReadSharedReq          502                       # Transaction distribution
system.tol2bus.pkt_count_system.cpu.icache.mem_side::system.l2.cpu_side         1517                       # Packet count per connected master and slave (bytes)
system.tol2bus.pkt_count_system.cpu.dcache.mem_side::system.l2.cpu_side     15790546                       # Packet count per connected master and slave (bytes)
system.tol2bus.pkt_count::total              15792063                       # Packet count per connected master and slave (bytes)
system.tol2bus.pkt_size_system.cpu.icache.mem_side::system.l2.cpu_side        55552                       # Cumulative packet size per connected master and slave (bytes)
system.tol2bus.pkt_size_system.cpu.dcache.mem_side::system.l2.cpu_side    673692672                       # Cumulative packet size per connected master and slave (bytes)
system.tol2bus.pkt_size::total              673748224                       # Cumulative packet size per connected master and slave (bytes)
system.tol2bus.snoops                         5231224                       # Total snoops (count)
system.tol2bus.snoopTraffic                 334738176                       # Total snoop traffic (bytes)
system.tol2bus.snoop_fanout::samples         10495559                       # Request fanout histogram
system.tol2bus.snoop_fanout::mean            0.000057                       # Request fanout histogram
system.tol2bus.snoop_fanout::stdev           0.007554                       # Request fanout histogram
system.tol2bus.snoop_fanout::underflows             0      0.00%      0.00% # Request fanout histogram
system.tol2bus.snoop_fanout::0               10494960     99.99%     99.99% # Request fanout histogram
system.tol2bus.snoop_fanout::1                    599      0.01%    100.00% # Request fanout histogram
system.tol2bus.snoop_fanout::2                      0      0.00%    100.00% # Request fanout histogram
system.tol2bus.snoop_fanout::overflows              0      0.00%    100.00% # Request fanout histogram
system.tol2bus.snoop_fanout::min_value              0                       # Request fanout histogram
system.tol2bus.snoop_fanout::max_value              1                       # Request fanout histogram
system.tol2bus.snoop_fanout::total           10495559                       # Request fanout histogram
system.tol2bus.reqLayer0.occupancy        21053690000                       # Layer occupancy (ticks)
system.tol2bus.reqLayer0.utilization              3.0                       # Layer utilization (%)
system.tol2bus.respLayer1.occupancy       15791063994                       # Layer occupancy (ticks)
system.tol2bus.respLayer1.utilization             2.2                       # Layer utilization (%)
system.tol2bus.respLayer0.occupancy           1947999                       # Layer occupancy (ticks)
system.tol2bus.respLayer0.utilization             0.0                       # Layer utilization (%)
system.voltage_domain.voltage                       1                       # Voltage in Volts
system.clk_domain.clock                          1000                       # Clock period in ticks
system.l2.pwrStateResidencyTicks::UNDEFINED 704063229000                       # Cumulative time (in ticks) in various power states
system.l2.demand_hits::.cpu.inst                   59                       # number of demand (read+write) hits
system.l2.demand_hits::.cpu.data                  374                       # number of demand (read+write) hits
system.l2.demand_hits::total                      433                       # number of demand (read+write) hits
system.l2.overall_hits::.cpu.inst                  59                       # number of overall hits
system.l2.overall_hits::.cpu.data                 374                       # number of overall hits
system.l2.overall_hits::total                     433                       # number of overall hits
system.l2.demand_misses::.cpu.inst                590                       # number of demand (read+write) misses
system.l2.demand_misses::.cpu.data            5263312                       # number of demand (read+write) misses
system.l2.demand_misses::total                5263902                       # number of demand (read+write) misses
system.l2.overall_misses::.cpu.inst               590                       # number of overall misses
system.l2.overall_misses::.cpu.data           5263312                       # number of overall misses
system.l2.overall_misses::total               5263902                       # number of overall misses
system.l2.demand_miss_latency::.cpu.inst     59750000                       # number of demand (read+write) miss cycles
system.l2.demand_miss_latency::.cpu.data 524791823000                       # number of demand (read+write) miss cycles
system.l2.demand_miss_latency::total     524851573000                       # number of demand (read+write) miss cycles
system.l2.overall_miss_latency::.cpu.inst     59750000                       # number of overall miss cycles
system.l2.overall_miss_latency::.cpu.data 524791823000                       # number of overall miss cycles
system.l2.overall_miss_latency::total    524851573000                       # number of overall miss cycles
system.l2.demand_accesses::.cpu.inst              649                       # number of demand (read+write) accesses
system.l2.demand_accesses::.cpu.data          5263686                       # number of demand (read+write) accesses
system.l2.demand_accesses::total              5264335                       # number of demand (read+write) accesses
system.l2.overall_accesses::.cpu.inst             649                       # number of overall (read+write) accesses
system.l2.overall_accesses::.cpu.data         5263686                       # number of overall (read+write) accesses
system.l2.overall_accesses::total             5264335                       # number of overall (read+write) accesses
system.l2.demand_miss_rate::.cpu.inst        0.909091                       # miss rate for demand accesses
system.l2.demand_miss_rate::.cpu.data        0.999929                       # miss rate for demand accesses
system.l2.demand_miss_rate::total            0.999918                       # miss rate for demand accesses
system.l2.overall_miss_rate::.cpu.inst       0.909091                       # miss rate for overall accesses
system.l2.overall_miss_rate::.cpu.data       0.999929                       # miss rate for overall accesses
system.l2.overall_miss_rate::total           0.999918                       # miss rate for overall accesses
system.l2.demand_avg_miss_latency::.cpu.inst 101271.186441                       # average overall miss latency
system.l2.demand_avg_miss_latency::.cpu.data 99707.526934                       # average overall miss latency
system.l2.demand_avg_miss_latency::total 99707.702195                       # average overall miss latency
system.l2.overall_avg_miss_latency::.cpu.inst 101271.186441                       # average overall miss latency
system.l2.overall_avg_miss_latency::.cpu.data 99707.526934                       # average overall miss latency
system.l2.overall_avg_miss_latency::total 99707.702195                       # average overall miss latency
system.l2.blocked_cycles::no_mshrs                  0                       # number of cycles access was blocked
system.l2.blocked_cycles::no_targets                0                       # number of cycles access was blocked
system.l2.blocked::no_mshrs                         0                       # number of cycles access was blocked
system.l2.blocked::no_targets                       0                       # number of cycles access was blocked
system.l2.avg_blocked_cycles::no_mshrs            nan                       # average number of cycles each access was blocked
system.l2.avg_blocked_cycles::no_targets          nan                       # average number of cycles each access was blocked
system.l2.writebacks::.writebacks             5230284                       # number of writebacks
system.l2.writebacks::total                   5230284                       # number of writebacks
system.l2.demand_mshr_hits::.cpu.inst               1                       # number of demand (read+write) MSHR hits
system.l2.demand_mshr_hits::.cpu.data               5                       # number of demand (read+write) MSHR hits
system.l2.demand_mshr_hits::total                   6                       # number of demand (read+write) MSHR hits
system.l2.overall_mshr_hits::.cpu.inst              1                       # number of overall MSHR hits
system.l2.overall_mshr_hits::.cpu.data              5                       # number of overall MSHR hits
system.l2.overall_mshr_hits::total                  6                       # number of overall MSHR hits
system.l2.demand_mshr_misses::.cpu.inst           589                       # number of demand (read+write) MSHR misses
system.l2.demand_mshr_misses::.cpu.data       5263307                       # number of demand (read+write) MSHR misses
system.l2.demand_mshr_misses::total           5263896                       # number of demand (read+write) MSHR misses
system.l2.overall_mshr_misses::.cpu.inst          589                       # number of overall MSHR misses
system.l2.overall_mshr_misses::.cpu.data      5263307                       # number of overall MSHR misses
system.l2.overall_mshr_misses::total          5263896                       # number of overall MSHR misses
system.l2.demand_mshr_miss_latency::.cpu.inst     47867000                       # number of demand (read+write) MSHR miss cycles
system.l2.demand_mshr_miss_latency::.cpu.data 419525278000                       # number of demand (read+write) MSHR miss cycles
system.l2.demand_mshr_miss_latency::total 419573145000                       # number of demand (read+write) MSHR miss cycles
system.l2.overall_mshr_miss_latency::.cpu.inst     47867000                       # number of overall MSHR miss cycles
system.l2.overall_mshr_miss_latency::.cpu.data 419525278000                       # number of overall MSHR miss cycles
system.l2.overall_mshr_miss_latency::total 419573145000                       # number of overall MSHR miss cycles
system.l2.demand_mshr_miss_rate::.cpu.inst     0.907550                       # mshr miss rate for demand accesses
system.l2.demand_mshr_miss_rate::.cpu.data     0.999928                       # mshr miss rate for demand accesses
system.l2.demand_mshr_miss_rate::total       0.999917                       # mshr miss rate for demand accesses
system.l2.overall_mshr_miss_rate::.cpu.inst     0.907550                       # mshr miss rate for overall accesses
system.l2.overall_mshr_miss_rate::.cpu.data     0.999928                       # mshr miss rate for overall accesses
system.l2.overall_mshr_miss_rate::total      0.999917                       # mshr miss rate for overall accesses
system.l2.demand_avg_mshr_miss_latency::.cpu.inst 81268.251273                       # average overall mshr miss latency
system.l2.demand_avg_mshr_miss_latency::.cpu.data 79707.544705                       # average overall mshr miss latency
system.l2.demand_avg_mshr_miss_latency::total 79707.719339                       # average overall mshr miss latency
system.l2.overall_avg_mshr_miss_latency::.cpu.inst 81268.251273                       # average overall mshr miss latency
system.l2.overall_avg_mshr_miss_latency::.cpu.data 79707.544705                       # average overall mshr miss latency
system.l2.overall_avg_mshr_miss_latency::total 79707.719339                       # average overall mshr miss latency
system.l2.replacements                        5231224                       # number of replacements
system.l2.WritebackDirty_hits::.writebacks      5262762                       # number of WritebackDirty hits
system.l2.WritebackDirty_hits::total          5262762                       # number of WritebackDirty hits
system.l2.WritebackDirty_accesses::.writebacks      5262762                       # number of WritebackDirty accesses(hits+misses)
system.l2.WritebackDirty_accesses::total      5262762                       # number of WritebackDirty accesses(hits+misses)
system.l2.WritebackClean_hits::.writebacks          214                       # number of WritebackClean hits
system.l2.WritebackClean_hits::total              214                       # number of WritebackClean hits
system.l2.WritebackClean_accesses::.writebacks          214                       # number of WritebackClean accesses(hits+misses)
system.l2.WritebackClean_accesses::total          214                       # number of WritebackClean accesses(hits+misses)
system.l2.ReadExReq_hits::.cpu.data               161                       # number of ReadExReq hits
system.l2.ReadExReq_hits::total                   161                       # number of ReadExReq hits
system.l2.ReadExReq_misses::.cpu.data         5263023                       # number of ReadExReq misses
system.l2.ReadExReq_misses::total             5263023                       # number of ReadExReq misses
system.l2.ReadExReq_miss_latency::.cpu.data 524760357000                       # number of ReadExReq miss cycles
system.l2.ReadExReq_miss_latency::total  524760357000                       # number of ReadExReq miss cycles
system.l2.ReadExReq_accesses::.cpu.data       5263184                       # number of ReadExReq accesses(hits+misses)
system.l2.ReadExReq_accesses::total           5263184                       # number of ReadExReq accesses(hits+misses)
system.l2.ReadExReq_miss_rate::.cpu.data     0.999969                       # miss rate for ReadExReq accesses
system.l2.ReadExReq_miss_rate::total         0.999969                       # miss rate for ReadExReq accesses
system.l2.ReadExReq_avg_miss_latency::.cpu.data 99707.023321                       # average ReadExReq miss latency
system.l2.ReadExReq_avg_miss_latency::total 99707.023321                       # average ReadExReq miss latency
system.l2.ReadExReq_mshr_misses::.cpu.data      5263023                       # number of ReadExReq MSHR misses
system.l2.ReadExReq_mshr_misses::total        5263023                       # number of ReadExReq MSHR misses
system.l2.ReadExReq_mshr_miss_latency::.cpu.data 419499897000                       # number of ReadExReq MSHR miss cycles
system.l2.ReadExReq_mshr_miss_latency::total 419499897000                       # number of ReadExReq MSHR miss cycles
system.l2.ReadExReq_mshr_miss_rate::.cpu.data     0.999969                       # mshr miss rate for ReadExReq accesses
system.l2.ReadExReq_mshr_miss_rate::total     0.999969                       # mshr miss rate for ReadExReq accesses
system.l2.ReadExReq_avg_mshr_miss_latency::.cpu.data 79707.023321                       # average ReadExReq mshr miss latency
system.l2.ReadExReq_avg_mshr_miss_latency::total 79707.023321                       # average ReadExReq mshr miss latency
system.l2.ReadCleanReq_hits::.cpu.inst             59                       # number of ReadCleanReq hits
system.l2.ReadCleanReq_hits::total                 59                       # number of ReadCleanReq hits
system.l2.ReadCleanReq_misses::.cpu.inst          590                       # number of ReadCleanReq misses
system.l2.ReadCleanReq_misses::total              590                       # number of ReadCleanReq misses
system.l2.ReadCleanReq_miss_latency::.cpu.inst     59750000                       # number of ReadCleanReq miss cycles
system.l2.ReadCleanReq_miss_latency::total     59750000                       # number of ReadCleanReq miss cycles
system.l2.ReadCleanReq_accesses::.cpu.inst          649                       # number of ReadCleanReq accesses(hits+misses)
system.l2.ReadCleanReq_accesses::total            649                       # number of ReadCleanReq accesses(hits+misses)
system.l2.ReadCleanReq_miss_rate::.cpu.inst     0.909091                       # miss rate for ReadCleanReq accesses
system.l2.ReadCleanReq_miss_rate::total      0.909091                       # miss rate for ReadCleanReq accesses
system.l2.ReadCleanReq_avg_miss_latency::.cpu.inst 101271.186441                       # average ReadCleanReq miss latency
system.l2.ReadCleanReq_avg_miss_latency::total 101271.186441                       # average ReadCleanReq miss latency
system.l2.ReadCleanReq_mshr_hits::.cpu.inst            1                       # number of ReadCleanReq MSHR hits
system.l2.ReadCleanReq_mshr_hits::total             1                       # number of ReadCleanReq MSHR hits
system.l2.ReadCleanReq_mshr_misses::.cpu.inst          589                       # number of ReadCleanReq MSHR misses
system.l2.ReadCleanReq_mshr_misses::total          589                       # number of ReadCleanReq MSHR misses
system.l2.ReadCleanReq_mshr_miss_latency::.cpu.inst     47867000                       # number of ReadCleanReq MSHR miss cycles
system.l2.ReadCleanReq_mshr_miss_latency::total     47867000                       # number of ReadCleanReq MSHR miss cycles
system.l2.ReadCleanReq_mshr_miss_rate::.cpu.inst     0.907550                       # mshr miss rate for ReadCleanReq accesses
system.l2.ReadCleanReq_mshr_miss_rate::total     0.907550                       # mshr miss rate for ReadCleanReq accesses
system.l2.ReadCleanReq_avg_mshr_miss_latency::.cpu.inst 81268.251273                       # average ReadCleanReq mshr miss latency
system.l2.ReadCleanReq_avg_mshr_miss_latency::total 81268.251273                       # average ReadCleanReq mshr miss latency
system.l2.ReadSharedReq_hits::.cpu.data           213                       # number of ReadSharedReq hits
system.l2.ReadSharedReq_hits::total               213                       # number of ReadSharedReq hits
system.l2.ReadSharedReq_misses::.cpu.data          289                       # number of ReadSharedReq misses
system.l2.ReadSharedReq_misses::total             289                       # number of ReadSharedReq misses
system.l2.ReadSharedReq_miss_latency::.cpu.data     31466000                       # number of ReadSharedReq miss cycles
system.l2.ReadSharedReq_miss_latency::total     31466000                       # number of ReadSharedReq miss cycles
system.l2.ReadSharedReq_accesses::.cpu.data          502                       # number of ReadSharedReq accesses(hits+misses)
system.l2.ReadSharedReq_accesses::total           502                       # number of ReadSharedReq accesses(hits+misses)
system.l2.ReadSharedReq_miss_rate::.cpu.data     0.575697                       # miss rate for ReadSharedReq accesses
system.l2.ReadSharedReq_miss_rate::total     0.575697                       # miss rate for ReadSharedReq accesses
system.l2.ReadSharedReq_avg_miss_latency::.cpu.data 108878.892734                       # average ReadSharedReq miss latency
system.l2.ReadSharedReq_avg_miss_latency::total 108878.892734                       # average ReadSharedReq miss latency
system.l2.ReadSharedReq_mshr_hits::.cpu.data            5                       # number of ReadSharedReq MSHR hits
system.l2.ReadSharedReq_mshr_hits::total            5                       # number of ReadSharedReq MSHR hits
system.l2.ReadSharedReq_mshr_misses::.cpu.data          284                       # number of ReadSharedReq MSHR misses
system.l2.ReadSharedReq_mshr_misses::total          284                       # number of ReadSharedReq MSHR misses
system.l2.ReadSharedReq_mshr_miss_latency::.cpu.data     25381000                       # number of ReadSharedReq MSHR miss cycles
system.l2.ReadSharedReq_mshr_miss_latency::total     25381000                       # number of ReadSharedReq MSHR miss cycles
system.l2.ReadSharedReq_mshr_miss_rate::.cpu.data     0.565737                       # mshr miss rate for ReadSharedReq accesses
system.l2.ReadSharedReq_mshr_miss_rate::total     0.565737                       # mshr miss rate for ReadSharedReq accesses
system.l2.ReadSharedReq_avg_mshr_miss_latency::.cpu.data 89369.718310                       # average ReadSharedReq mshr miss latency
system.l2.ReadSharedReq_avg_mshr_miss_latency::total 89369.718310                       # average ReadSharedReq mshr miss latency
system.l2.tags.pwrStateResidencyTicks::UNDEFINED 704063229000                       # Cumulative time (in ticks) in various power states
system.l2.tags.tagsinuse                 32431.496655                       # Cycle average of tags in use
system.l2.tags.total_refs                    10527660                       # Total number of references to valid blocks.
system.l2.tags.sampled_refs                   5263992                       # Sample count of references to valid blocks.
system.l2.tags.avg_refs                      1.999938                       # Average number of references to valid blocks.
system.l2.tags.warmup_cycle                     87000                       # Cycle when the warmup percentage was hit.
system.l2.tags.occ_blocks::.writebacks       0.552515                       # Average occupied blocks per requestor
system.l2.tags.occ_blocks::.cpu.inst         6.096033                       # Average occupied blocks per requestor
system.l2.tags.occ_blocks::.cpu.data     32424.848106                       # Average occupied blocks per requestor
system.l2.tags.occ_percent::.writebacks      0.000017                       # Average percentage of cache occupancy
system.l2.tags.occ_percent::.cpu.inst        0.000186                       # Average percentage of cache occupancy
system.l2.tags.occ_percent::.cpu.data        0.989528                       # Average percentage of cache occupancy
system.l2.tags.occ_percent::total            0.989731                       # Average percentage of cache occupancy
system.l2.tags.occ_task_id_blocks::1024         32768                       # Occupied blocks per task id
system.l2.tags.age_task_id_blocks_1024::0           76                       # Occupied blocks per task id
system.l2.tags.age_task_id_blocks_1024::1          679                       # Occupied blocks per task id
system.l2.tags.age_task_id_blocks_1024::2         6780                       # Occupied blocks per task id
system.l2.tags.age_task_id_blocks_1024::3        25233                       # Occupied blocks per task id
system.l2.tags.occ_task_id_percent::1024            1                       # Percentage of cache occupancy per task id
system.l2.tags.tag_accesses                  89485320                       # Number of tag accesses
system.l2.tags.data_accesses                 89485320                       # Number of data accesses
system.cpu_voltage_domain.voltage                   1                       # Voltage in Volts
system.mem_ctrls.pwrStateResidencyTicks::UNDEFINED 704063229000                       # Cumulative time (in ticks) in various power states
system.mem_ctrls.bytes_read::.cpu.inst          37696                       # Number of bytes read from this memory
system.mem_ctrls.bytes_read::.cpu.data      336851648                       # Number of bytes read from this memory
system.mem_ctrls.bytes_read::total          336889344                       # Number of bytes read from this memory
system.mem_ctrls.bytes_inst_read::.cpu.inst        37696                       # Number of instructions bytes read from this memory
system.mem_ctrls.bytes_inst_read::total         37696                       # Number of instructions bytes read from this memory
system.mem_ctrls.bytes_written::.writebacks    334738176                       # Number of bytes written to this memory
system.mem_ctrls.bytes_written::total       334738176                       # Number of bytes written to this memory
system.mem_ctrls.num_reads::.cpu.inst             589                       # Number of read requests responded to by this memory
system.mem_ctrls.num_reads::.cpu.data         5263307                       # Number of read requests responded to by this memory
system.mem_ctrls.num_reads::total             5263896                       # Number of read requests responded to by this memory
system.mem_ctrls.num_writes::.writebacks      5230284                       # Number of write requests responded to by this memory
system.mem_ctrls.num_writes::total            5230284                       # Number of write requests responded to by this memory
system.mem_ctrls.bw_read::.cpu.inst             53541                       # Total read bandwidth from this memory (bytes/s)
system.mem_ctrls.bw_read::.cpu.data         478439484                       # Total read bandwidth from this memory (bytes/s)
system.mem_ctrls.bw_read::total             478493025                       # Total read bandwidth from this memory (bytes/s)
system.mem_ctrls.bw_inst_read::.cpu.inst        53541                       # Instruction read bandwidth from this memory (bytes/s)
system.mem_ctrls.bw_inst_read::total            53541                       # Instruction read bandwidth from this memory (bytes/s)
system.mem_ctrls.bw_write::.writebacks      475437663                       # Write bandwidth from this memory (bytes/s)
system.mem_ctrls.bw_write::total            475437663                       # Write bandwidth from this memory (bytes/s)
system.mem_ctrls.bw_total::.writebacks      475437663                       # Total bandwidth to/from this memory (bytes/s)
system.mem_ctrls.bw_total::.cpu.inst            53541                       # Total bandwidth to/from this memory (bytes/s)
system.mem_ctrls.bw_total::.cpu.data        478439484                       # Total bandwidth to/from this memory (bytes/s)
system.mem_ctrls.bw_total::total            953930687                       # Total bandwidth to/from this memory (bytes/s)
system.mem_ctrls.avgPriority_.writebacks::samples   5230284.00                       # Average QoS priority value for accepted requests
system.mem_ctrls.avgPriority_.cpu.inst::samples       589.00                       # Average QoS priority value for accepted requests
system.mem_ctrls.avgPriority_.cpu.data::samples   5263307.00                       # Average QoS priority value for accepted requests
system.mem_ctrls.priorityMinLatency      0.000000018750                       # per QoS priority minimum request to response latency (s)
system.mem_ctrls.priorityMaxLatency      0.001152918500                       # per QoS priority maximum request to response latency (s)
system.mem_ctrls.numReadWriteTurnArounds       326879                       # Number of turnarounds from READ to WRITE
system.mem_ctrls.numWriteReadTurnArounds       326879                       # Number of turnarounds from WRITE to READ
system.mem_ctrls.numStayReadState            15611811                       # Number of times bus staying in READ state
system.mem_ctrls.numStayWriteState            4903575                       # Number of times bus staying in WRITE state
system.mem_ctrls.readReqs                     5263896                       # Number of read requests accepted
system.mem_ctrls.writeReqs                    5230284                       # Number of write requests accepted
system.mem_ctrls.readBursts                   5263896                       # Number of DRAM read bursts, including those serviced by the write queue
system.mem_ctrls.writeBursts                  5230284                       # Number of DRAM write bursts, including those merged in the write queue
system.mem_ctrls.servicedByWrQ                      0                       # Number of DRAM read bursts serviced by the write queue
system.mem_ctrls.mergedWrBursts                     0                       # Number of DRAM write bursts merged with an existing one
system.mem_ctrls.neitherReadNorWriteReqs            0                       # Number of requests that are neither read nor write
system.mem_ctrls.perBankRdBursts::0            329032                       # Per bank write bursts
system.mem_ctrls.perBankRdBursts::1            329055                       # Per bank write bursts
system.mem_ctrls.perBankRdBursts::2            329094                       # Per bank write bursts
system.mem_ctrls.perBankRdBursts::3            329070                       # Per bank write bursts
system.mem_ctrls.perBankRdBursts::4            329023                       # Per bank write bursts
system.mem_ctrls.perBankRdBursts::5            329065                       # Per bank write bursts
system.mem_ctrls.perBankRdBursts::6            329082                       # Per bank write bursts
system.mem_ctrls.perBankRdBursts::7            328937                       # Per bank write bursts
system.mem_ctrls.perBankRdBursts::8            328898                       # Per bank write bursts
system.mem_ctrls.perBankRdBursts::9            328869                       # Per bank write bursts
system.mem_ctrls.perBankRdBursts::10           328835                       # Per bank write bursts
system.mem_ctrls.perBankRdBursts::11           329026                       # Per bank write bursts
system.mem_ctrls.perBankRdBursts::12           329023                       # Per bank write bursts
system.mem_ctrls.perBankRdBursts::13           329022                       # Per bank write bursts
system.mem_ctrls.perBankRdBursts::14           328987                       # Per bank write bursts
system.mem_ctrls.perBankRdBursts::15           328878                       # Per bank write bursts
system.mem_ctrls.perBankWrBursts::0            326857                       # Per bank write bursts
system.mem_ctrls.perBankWrBursts::1            326910                       # Per bank write bursts
system.mem_ctrls.perBankWrBursts::2            327004                       # Per bank write bursts
system.mem_ctrls.perBankWrBursts::3            326992                       # Per bank write bursts
system.mem_ctrls.perBankWrBursts::4            326969                       # Per bank write bursts
system.mem_ctrls.perBankWrBursts::5            326973                       # Per bank write bursts
system.mem_ctrls.perBankWrBursts::6            326986                       # Per bank write bursts
system.mem_ctrls.perBankWrBursts::7            326871                       # Per bank write bursts
system.mem_ctrls.perBankWrBursts::8            326784                       # Per bank write bursts
system.mem_ctrls.perBankWrBursts::9            326784                       # Per bank write bursts
system.mem_ctrls.perBankWrBursts::10           326714                       # Per bank write bursts
system.mem_ctrls.perBankWrBursts::11           326929                       # Per bank write bursts
system.mem_ctrls.perBankWrBursts::12           326930                       # Per bank write bursts
system.mem_ctrls.perBankWrBursts::13           326910                       # Per bank write bursts
system.mem_ctrls.perBankWrBursts::14           326849                       # Per bank write bursts
system.mem_ctrls.perBankWrBursts::15           326799                       # Per bank write bursts
system.mem_ctrls.avgRdQLen                       1.00                       # Average read queue length when enqueuing
system.mem_ctrls.avgWrQLen                      25.46                       # Average write queue length when enqueuing
system.mem_ctrls.totQLat                  51042915250                       # Total ticks spent queuing
system.mem_ctrls.totBusLat                26319480000                       # Total ticks spent in databus transfers
system.mem_ctrls.totMemAccLat            149740965250                       # Total ticks spent from burst creation until serviced by the DRAM
system.mem_ctrls.avgQLat                      9696.79                       # Average queueing delay per DRAM burst
system.mem_ctrls.avgBusLat                    5000.00                       # Average bus latency per DRAM burst
system.mem_ctrls.avgMemAccLat                28446.79                       # Average memory access latency per DRAM burst
system.mem_ctrls.numRdRetry                         0                       # Number of times read queue was full causing retry
system.mem_ctrls.numWrRetry                         0                       # Number of times write queue was full causing retry
system.mem_ctrls.readRowHits                  4809075                       # Number of row buffer hits during reads
system.mem_ctrls.writeRowHits                 4861622                       # Number of row buffer hits during writes
system.mem_ctrls.readRowHitRate                 91.36                       # Row buffer hit rate for reads
system.mem_ctrls.writeRowHitRate                92.95                       # Row buffer hit rate for writes
system.mem_ctrls.readPktSize::0                     0                       # Read request sizes (log2)
system.mem_ctrls.readPktSize::1                     0                       # Read request sizes (log2)
system.mem_ctrls.readPktSize::2                     0                       # Read request sizes (log2)
system.mem_ctrls.readPktSize::3                     0                       # Read request sizes (log2)
system.mem_ctrls.readPktSize::4                     0                       # Read request sizes (log2)
system.mem_ctrls.readPktSize::5                     0                       # Read request sizes (log2)
system.mem_ctrls.readPktSize::6               5263896                       # Read request sizes (log2)
system.mem_ctrls.writePktSize::0                    0                       # Write request sizes (log2)
system.mem_ctrls.writePktSize::1                    0                       # Write request sizes (log2)
system.mem_ctrls.writePktSize::2                    0                       # Write request sizes (log2)
system.mem_ctrls.writePktSize::3                    0                       # Write request sizes (log2)
system.mem_ctrls.writePktSize::4                    0                       # Write request sizes (log2)
system.mem_ctrls.writePktSize::5                    0                       # Write request sizes (log2)
system.mem_ctrls.writePktSize::6              5230284                       # Write request sizes (log2)
system.mem_ctrls.rdQLenPdf::0                 5263637                       # What read queue length does an incoming req see
system.mem_ctrls.rdQLenPdf::1                     238                       # What read queue length does an incoming req see
system.mem_ctrls.rdQLenPdf::2                      21                       # What read queue length does an incoming req see
system.mem_ctrls.rdQLenPdf::3                       0                       # What read queue length does an incoming req see
system.mem_ctrls.rdQLenPdf::4                       0                       # What read queue length does an incoming req see
system.mem_ctrls.rdQLenPdf::5                       0                       # What read queue length does an incoming req see
system.mem_ctrls.rdQLenPdf::6                       0                       # What read queue length does an incoming req see
system.mem_ctrls.rdQLenPdf::7                       0                       # What read queue length does an incoming req see
system.mem_ctrls.rdQLenPdf::8                       0                       # What read queue length does an incoming req see
system.mem_ctrls.rdQLenPdf::9                       0                       # What read queue length does an incoming req see
system.mem_ctrls.rdQLenPdf::10                      0                       # What read queue length does an incoming req see
system.mem_ctrls.rdQLenPdf::11                      0                       # What read queue length does an incoming req see
system.mem_ctrls.rdQLenPdf::12                      0                       # What read queue length does an incoming req see
system.mem_ctrls.rdQLenPdf::13                      0                       # What read queue length does an incoming req see
system.mem_ctrls.rdQLenPdf::14                      0                       # What read queue length does an incoming req see
system.mem_ctrls.rdQLenPdf::15                      0                       # What read queue length does an incoming req see
system.mem_ctrls.rdQLenPdf::16                      0                       # What read queue length does an incoming req see
system.mem_ctrls.rdQLenPdf::17                      0                       # What read queue length does an incoming req see
system.mem_ctrls.rdQLenPdf::18                      0                       # What read queue length does an incoming req see
system.mem_ctrls.rdQLenPdf::19                      0                       # What read queue length does an incoming req see
system.mem_ctrls.rdQLenPdf::20                      0                       # What read queue length does an incoming req see
system.mem_ctrls.rdQLenPdf::21                      0                       # What read queue length does an incoming req see
system.mem_ctrls.rdQLenPdf::22                      0                       # What read queue length does an incoming req see
system.mem_ctrls.rdQLenPdf::23                      0                       # What read queue length does an incoming req see
system.mem_ctrls.rdQLenPdf::24                      0                       # What read queue length does an incoming req see
system.mem_ctrls.rdQLenPdf::25                      0                       # What read queue length does an incoming req see
system.mem_ctrls.rdQLenPdf::26                      0                       # What read queue length does an incoming req see
system.mem_ctrls.rdQLenPdf::27                      0                       # What read queue length does an incoming req see
system.mem_ctrls.rdQLenPdf::28                      0                       # What read queue length does an incoming req see
system.mem_ctrls.rdQLenPdf::29                      0                       # What read queue length does an incoming req see
system.mem_ctrls.rdQLenPdf::30                      0                       # What read queue length does an incoming req see
system.mem_ctrls.rdQLenPdf::31                      0                       # What read queue length does an incoming req see
system.mem_ctrls.wrQLenPdf::0                       1                       # What write queue length does an incoming req see
system.mem_ctrls.wrQLenPdf::1                       1                       # What write queue length does an incoming req see
system.mem_ctrls.wrQLenPdf::2                       1                       # What write queue length does an incoming req see
system.mem_ctrls.wrQLenPdf::3                       1                       # What write queue length does an incoming req see
system.mem_ctrls.wrQLenPdf::4                       1                       # What write queue length does an incoming req see
system.mem_ctrls.wrQLenPdf::5                       1                       # What write queue length does an incoming req see
system.mem_ctrls.wrQLenPdf::6                       1                       # What write queue length does an incoming req see
system.mem_ctrls.wrQLenPdf::7                       1                       # What write queue length does an incoming req see
system.mem_ctrls.wrQLenPdf::8                       1                       # What write queue length does an incoming req see
system.mem_ctrls.wrQLenPdf::9                       1                       # What write queue length does an incoming req see
system.mem_ctrls.wrQLenPdf::10                      1                       # What write queue length does an incoming req see
system.mem_ctrls.wrQLenPdf::11                      1                       # What write queue length does an incoming req see
system.mem_ctrls.wrQLenPdf::12                      1                       # What write queue length does an incoming req see
system.mem_ctrls.wrQLenPdf::13                      1                       # What write queue length does an incoming req see
system.mem_ctrls.wrQLenPdf::14                      1                       # What write queue length does an incoming req see
system.mem_ctrls.wrQLenPdf::15                     53                       # What write queue length does an incoming req see
system.mem_ctrls.wrQLenPdf::16                    102                       # What write queue length does an incoming req see
system.mem_ctrls.wrQLenPdf::17                 326870                       # What write queue length does an incoming req see
system.mem_ctrls.wrQLenPdf::18                 326878                       # What write queue length does an incoming req see
system.mem_ctrls.wrQLenPdf::19                 326880                       # What write queue length does an incoming req see
system.mem_ctrls.wrQLenPdf::20                 326881                       # What write queue length does an incoming req see
system.mem_ctrls.wrQLenPdf::21                 326887                       # What write queue length does an incoming req see
system.mem_ctrls.wrQLenPdf::22                 326882                       # What write queue length does an incoming req see
system.mem_ctrls.wrQLenPdf::23                 326917                       # What write queue length does an incoming req see
system.mem_ctrls.wrQLenPdf::24                 326879                       # What write queue length does an incoming req see
system.mem_ctrls.wrQLenPdf::25                 326879                       # What write queue length does an incoming req see
system.mem_ctrls.wrQLenPdf::26                 326880                       # What write queue length does an incoming req see
system.mem_ctrls.wrQLenPdf::27                 326880                       # What write queue length does an incoming req see
system.mem_ctrls.wrQLenPdf::28                 326880                       # What write queue length does an incoming req see
system.mem_ctrls.wrQLenPdf::29                 326880                       # What write queue length does an incoming req see
system.mem_ctrls.wrQLenPdf::30                 326881                       # What write queue length does an incoming req see
system.mem_ctrls.wrQLenPdf::31                 326881                       # What write queue length does an incoming req see
system.mem_ctrls.wrQLenPdf::32                 326879                       # What write queue length does an incoming req see
system.mem_ctrls.wrQLenPdf::33                      0                       # What write queue length does an incoming req see
system.mem_ctrls.wrQLenPdf::34                      0                       # What write queue length does an incoming req see
system.mem_ctrls.wrQLenPdf::35                      0                       # What write queue length does an incoming req see
system.mem_ctrls.wrQLenPdf::36                      0                       # What write queue length does an incoming req see
system.mem_ctrls.wrQLenPdf::37                      0                       # What write queue length does an incoming req see
system.mem_ctrls.wrQLenPdf::38                      0                       # What write queue length does an incoming req see
system.mem_ctrls.wrQLenPdf::39                      0                       # What write queue length does an incoming req see
system.mem_ctrls.wrQLenPdf::40                      0                       # What write queue length does an incoming req see
system.mem_ctrls.wrQLenPdf::41                      0                       # What write queue length does an incoming req see
system.mem_ctrls.wrQLenPdf::42                      0                       # What write queue length does an incoming req see
system.mem_ctrls.wrQLenPdf::43                      0                       # What write queue length does an incoming req see
system.mem_ctrls.wrQLenPdf::44                      0                       # What write queue length does an incoming req see
system.mem_ctrls.wrQLenPdf::45                      0                       # What write queue length does an incoming req see
system.mem_ctrls.wrQLenPdf::46                      0                       # What write queue length does an incoming req see
system.mem_ctrls.wrQLenPdf::47                      0                       # What write queue length does an incoming req see
system.mem_ctrls.wrQLenPdf::48                      0                       # What write queue length does an incoming req see
system.mem_ctrls.wrQLenPdf::49                      0                       # What write queue length does an incoming req see
system.mem_ctrls.wrQLenPdf::50                      0                       # What write queue length does an incoming req see
system.mem_ctrls.wrQLenPdf::51                      0                       # What write queue length does an incoming req see
system.mem_ctrls.wrQLenPdf::52                      0                       # What write queue length does an incoming req see
system.mem_ctrls.wrQLenPdf::53                      0                       # What write queue length does an incoming req see
system.mem_ctrls.wrQLenPdf::54                      0                       # What write queue length does an incoming req see
system.mem_ctrls.wrQLenPdf::55                      0                       # What write queue length does an incoming req see
system.mem_ctrls.wrQLenPdf::56                      0                       # What write queue length does an incoming req see
system.mem_ctrls.wrQLenPdf::57                      0                       # What write queue length does an incoming req see
system.mem_ctrls.wrQLenPdf::58                      0                       # What write queue length does an incoming req see
system.mem_ctrls.wrQLenPdf::59                      0                       # What write queue length does an incoming req see
system.mem_ctrls.wrQLenPdf::60                      0                       # What write queue length does an incoming req see
system.mem_ctrls.wrQLenPdf::61                      0                       # What write queue length does an incoming req see
system.mem_ctrls.wrQLenPdf::62                      0                       # What write queue length does an incoming req see
system.mem_ctrls.wrQLenPdf::63                      0                       # What write queue length does an incoming req see
system.mem_ctrls.bytesPerActivate::samples       823459                       # Bytes accessed per row activation
system.mem_ctrls.bytesPerActivate::mean    815.615184                       # Bytes accessed per row activation
system.mem_ctrls.bytesPerActivate::gmean   689.273440                       # Bytes accessed per row activation
system.mem_ctrls.bytesPerActivate::stdev   319.922972                       # Bytes accessed per row activation
system.mem_ctrls.bytesPerActivate::0-127        36046      4.38%      4.38% # Bytes accessed per row activation
system.mem_ctrls.bytesPerActivate::128-255        35868      4.36%      8.73% # Bytes accessed per row activation
system.mem_ctrls.bytesPerActivate::256-383        60594      7.36%     16.09% # Bytes accessed per row activation
system.mem_ctrls.bytesPerActivate::384-511        34381      4.18%     20.27% # Bytes accessed per row activation
system.mem_ctrls.bytesPerActivate::512-639         8395      1.02%     21.29% # Bytes accessed per row activation
system.mem_ctrls.bytesPerActivate::640-767        54754      6.65%     27.94% # Bytes accessed per row activation
system.mem_ctrls.bytesPerActivate::768-895        48123      5.84%     33.78% # Bytes accessed per row activation
system.mem_ctrls.bytesPerActivate::896-1023        45397      5.51%     39.29% # Bytes accessed per row activation
system.mem_ctrls.bytesPerActivate::1024-1151       499901     60.71%    100.00% # Bytes accessed per row activation
system.mem_ctrls.bytesPerActivate::total       823459                       # Bytes accessed per row activation
system.mem_ctrls.rdPerTurnAround::samples       326879                       # Reads before turning the bus around for writes
system.mem_ctrls.rdPerTurnAround::mean      16.103482                       # Reads before turning the bus around for writes
system.mem_ctrls.rdPerTurnAround::gmean     16.004545                       # Reads before turning the bus around for writes
system.mem_ctrls.rdPerTurnAround::stdev     49.703027                       # Reads before turning the bus around for writes
system.mem_ctrls.rdPerTurnAround::0-1023       326877    100.00%    100.00% # Reads before turning the bus around for writes
system.mem_ctrls.rdPerTurnAround::1024-2047            1      0.00%    100.00% # Reads before turning the bus around for writes
system.mem_ctrls.rdPerTurnAround::27648-28671            1      0.00%    100.00% # Reads before turning the bus around for writes
system.mem_ctrls.rdPerTurnAround::total        326879                       # Reads before turning the bus around for writes
system.mem_ctrls.wrPerTurnAround::samples       326879                       # Writes before turning the bus around for reads
system.mem_ctrls.wrPerTurnAround::mean      16.000603                       # Writes before turning the bus around for reads
[...]
system.cpu.icache.ReadReq_miss_rate::.cpu.inst     0.000020                       # miss rate for ReadReq accesses
system.cpu.icache.ReadReq_miss_rate::total     0.000020                       # miss rate for ReadReq accesses
system.cpu.icache.ReadReq_avg_miss_latency::.cpu.inst 99064.714946                       # average ReadReq miss latency
system.cpu.icache.ReadReq_avg_miss_latency::total 99064.714946                       # average ReadReq miss latency
system.cpu.icache.ReadReq_mshr_misses::.cpu.inst          649                       # number of ReadReq MSHR misses
system.cpu.icache.ReadReq_mshr_misses::total          649                       # number of ReadReq MSHR misses
system.cpu.icache.ReadReq_mshr_miss_latency::.cpu.inst     62995000                       # number of ReadReq MSHR miss cycles
system.cpu.icache.ReadReq_mshr_miss_latency::total     62995000                       # number of ReadReq MSHR miss cycles
system.cpu.icache.ReadReq_mshr_miss_rate::.cpu.inst     0.000020                       # mshr miss rate for ReadReq accesses
system.cpu.icache.ReadReq_mshr_miss_rate::total     0.000020                       # mshr miss rate for ReadReq accesses
system.cpu.icache.ReadReq_avg_mshr_miss_latency::.cpu.inst 97064.714946                       # average ReadReq mshr miss latency
system.cpu.icache.ReadReq_avg_mshr_miss_latency::total 97064.714946                       # average ReadReq mshr miss latency
system.cpu.icache.tags.pwrStateResidencyTicks::UNDEFINED 704063229000                       # Cumulative time (in ticks) in various power states
system.cpu.icache.tags.tagsinuse           384.471052                       # Cycle average of tags in use
system.cpu.icache.tags.total_refs            31870340                       # Total number of references to valid blocks.
system.cpu.icache.tags.sampled_refs               649                       # Sample count of references to valid blocks.
system.cpu.icache.tags.avg_refs          49106.841294                       # Average number of references to valid blocks.
system.cpu.icache.tags.warmup_cycle            108000                       # Cycle when the warmup percentage was hit.
system.cpu.icache.tags.occ_blocks::.cpu.inst   384.471052                       # Average occupied blocks per requestor
system.cpu.icache.tags.occ_percent::.cpu.inst     0.750920                       # Average percentage of cache occupancy
system.cpu.icache.tags.occ_percent::total     0.750920                       # Average percentage of cache occupancy
system.cpu.icache.tags.occ_task_id_blocks::1024          430                       # Occupied blocks per task id
system.cpu.icache.tags.age_task_id_blocks_1024::4          430                       # Occupied blocks per task id
system.cpu.icache.tags.occ_task_id_percent::1024     0.839844                       # Percentage of cache occupancy per task id
system.cpu.icache.tags.tag_accesses          63741329                       # Number of tag accesses
system.cpu.icache.tags.data_accesses         63741329                       # Number of data accesses
system.cpu.dtb.walker.pwrStateResidencyTicks::UNDEFINED 704063229000                       # Cumulative time (in ticks) in various power states
system.cpu.dtb.stage2_mmu.stage2_tlb.walker.pwrStateResidencyTicks::UNDEFINED 704063229000                       # Cumulative time (in ticks) in various power states
system.cpu.dcache.pwrStateResidencyTicks::UNDEFINED 704063229000                       # Cumulative time (in ticks) in various power states
system.cpu.dcache.demand_hits::.cpu.data     75856487                       # number of demand (read+write) hits
system.cpu.dcache.demand_hits::total         75856487                       # number of demand (read+write) hits
system.cpu.dcache.overall_hits::.cpu.data     75856521                       # number of overall hits
system.cpu.dcache.overall_hits::total        75856521                       # number of overall hits
system.cpu.dcache.demand_misses::.cpu.data     10524115                       # number of demand (read+write) misses
system.cpu.dcache.demand_misses::total       10524115                       # number of demand (read+write) misses
system.cpu.dcache.overall_misses::.cpu.data     10524152                       # number of overall misses
system.cpu.dcache.overall_misses::total      10524152                       # number of overall misses
system.cpu.dcache.demand_miss_latency::.cpu.data 1107165952998                       # number of demand (read+write) miss cycles
system.cpu.dcache.demand_miss_latency::total 1107165952998                       # number of demand (read+write) miss cycles
system.cpu.dcache.overall_miss_latency::.cpu.data 1107165952998                       # number of overall miss cycles
system.cpu.dcache.overall_miss_latency::total 1107165952998                       # number of overall miss cycles
system.cpu.dcache.demand_accesses::.cpu.data     86380602                       # number of demand (read+write) accesses
system.cpu.dcache.demand_accesses::total     86380602                       # number of demand (read+write) accesses
system.cpu.dcache.overall_accesses::.cpu.data     86380673                       # number of overall (read+write) accesses
system.cpu.dcache.overall_accesses::total     86380673                       # number of overall (read+write) accesses
system.cpu.dcache.demand_miss_rate::.cpu.data     0.121834                       # miss rate for demand accesses
system.cpu.dcache.demand_miss_rate::total     0.121834                       # miss rate for demand accesses
system.cpu.dcache.overall_miss_rate::.cpu.data     0.121835                       # miss rate for overall accesses
system.cpu.dcache.overall_miss_rate::total     0.121835                       # miss rate for overall accesses
system.cpu.dcache.demand_avg_miss_latency::.cpu.data 105202.760802                       # average overall miss latency
system.cpu.dcache.demand_avg_miss_latency::total 105202.760802                       # average overall miss latency
system.cpu.dcache.overall_avg_miss_latency::.cpu.data 105202.390938                       # average overall miss latency
system.cpu.dcache.overall_avg_miss_latency::total 105202.390938                       # average overall miss latency
system.cpu.dcache.blocked_cycles::no_mshrs          173                       # number of cycles access was blocked
system.cpu.dcache.blocked_cycles::no_targets            0                       # number of cycles access was blocked
system.cpu.dcache.blocked::no_mshrs                 5                       # number of cycles access was blocked
system.cpu.dcache.blocked::no_targets               0                       # number of cycles access was blocked
system.cpu.dcache.avg_blocked_cycles::no_mshrs    34.600000                       # average number of cycles each access was blocked
system.cpu.dcache.avg_blocked_cycles::no_targets          nan                       # average number of cycles each access was blocked
system.cpu.dcache.writebacks::.writebacks      5262762                       # number of writebacks
system.cpu.dcache.writebacks::total           5262762                       # number of writebacks
system.cpu.dcache.demand_mshr_hits::.cpu.data      5260462                       # number of demand (read+write) MSHR hits
system.cpu.dcache.demand_mshr_hits::total      5260462                       # number of demand (read+write) MSHR hits
system.cpu.dcache.overall_mshr_hits::.cpu.data      5260462                       # number of overall MSHR hits
system.cpu.dcache.overall_mshr_hits::total      5260462                       # number of overall MSHR hits
system.cpu.dcache.demand_mshr_misses::.cpu.data      5263653                       # number of demand (read+write) MSHR misses
system.cpu.dcache.demand_mshr_misses::total      5263653                       # number of demand (read+write) MSHR misses
system.cpu.dcache.overall_mshr_misses::.cpu.data      5263686                       # number of overall MSHR misses
system.cpu.dcache.overall_mshr_misses::total      5263686                       # number of overall MSHR misses
system.cpu.dcache.demand_mshr_miss_latency::.cpu.data 540588553000                       # number of demand (read+write) MSHR miss cycles
system.cpu.dcache.demand_mshr_miss_latency::total 540588553000                       # number of demand (read+write) MSHR miss cycles
system.cpu.dcache.overall_mshr_miss_latency::.cpu.data 540591956000                       # number of overall MSHR miss cycles
system.cpu.dcache.overall_mshr_miss_latency::total 540591956000                       # number of overall MSHR miss cycles
system.cpu.dcache.demand_mshr_miss_rate::.cpu.data     0.060936                       # mshr miss rate for demand accesses
system.cpu.dcache.demand_mshr_miss_rate::total     0.060936                       # mshr miss rate for demand accesses
system.cpu.dcache.overall_mshr_miss_rate::.cpu.data     0.060936                       # mshr miss rate for overall accesses
system.cpu.dcache.overall_mshr_miss_rate::total     0.060936                       # mshr miss rate for overall accesses
system.cpu.dcache.demand_avg_mshr_miss_latency::.cpu.data 102702.163877                       # average overall mshr miss latency
system.cpu.dcache.demand_avg_mshr_miss_latency::total 102702.163877                       # average overall mshr miss latency
system.cpu.dcache.overall_avg_mshr_miss_latency::.cpu.data 102702.166505                       # average overall mshr miss latency
system.cpu.dcache.overall_avg_mshr_miss_latency::total 102702.166505                       # average overall mshr miss latency
system.cpu.dcache.replacements                5263174                       # number of replacements
system.cpu.dcache.ReadReq_hits::.cpu.data      2043547                       # number of ReadReq hits
system.cpu.dcache.ReadReq_hits::total         2043547                       # number of ReadReq hits
system.cpu.dcache.ReadReq_misses::.cpu.data          489                       # number of ReadReq misses
system.cpu.dcache.ReadReq_misses::total           489                       # number of ReadReq misses
system.cpu.dcache.ReadReq_miss_latency::.cpu.data     37318000                       # number of ReadReq miss cycles
system.cpu.dcache.ReadReq_miss_latency::total     37318000                       # number of ReadReq miss cycles
system.cpu.dcache.ReadReq_accesses::.cpu.data      2044036                       # number of ReadReq accesses(hits+misses)
system.cpu.dcache.ReadReq_accesses::total      2044036                       # number of ReadReq accesses(hits+misses)
system.cpu.dcache.ReadReq_miss_rate::.cpu.data     0.000239                       # miss rate for ReadReq accesses
system.cpu.dcache.ReadReq_miss_rate::total     0.000239                       # miss rate for ReadReq accesses
system.cpu.dcache.ReadReq_avg_miss_latency::.cpu.data 76314.928425                       # average ReadReq miss latency
system.cpu.dcache.ReadReq_avg_miss_latency::total 76314.928425                       # average ReadReq miss latency
system.cpu.dcache.ReadReq_mshr_hits::.cpu.data           20                       # number of ReadReq MSHR hits
system.cpu.dcache.ReadReq_mshr_hits::total           20                       # number of ReadReq MSHR hits
system.cpu.dcache.ReadReq_mshr_misses::.cpu.data          469                       # number of ReadReq MSHR misses
system.cpu.dcache.ReadReq_mshr_misses::total          469                       # number of ReadReq MSHR misses
system.cpu.dcache.ReadReq_mshr_miss_latency::.cpu.data     34521000                       # number of ReadReq MSHR miss cycles
system.cpu.dcache.ReadReq_mshr_miss_latency::total     34521000                       # number of ReadReq MSHR miss cycles
system.cpu.dcache.ReadReq_mshr_miss_rate::.cpu.data     0.000229                       # mshr miss rate for ReadReq accesses
system.cpu.dcache.ReadReq_mshr_miss_rate::total     0.000229                       # mshr miss rate for ReadReq accesses
system.cpu.dcache.ReadReq_avg_mshr_miss_latency::.cpu.data 73605.543710                       # average ReadReq mshr miss latency
system.cpu.dcache.ReadReq_avg_mshr_miss_latency::total 73605.543710                       # average ReadReq mshr miss latency
system.cpu.dcache.WriteReq_hits::.cpu.data     73812940                       # number of WriteReq hits
system.cpu.dcache.WriteReq_hits::total       73812940                       # number of WriteReq hits
system.cpu.dcache.WriteReq_misses::.cpu.data     10523626                       # number of WriteReq misses
system.cpu.dcache.WriteReq_misses::total     10523626                       # number of WriteReq misses
system.cpu.dcache.WriteReq_miss_latency::.cpu.data 1107128634998                       # number of WriteReq miss cycles
system.cpu.dcache.WriteReq_miss_latency::total 1107128634998                       # number of WriteReq miss cycles
system.cpu.dcache.WriteReq_accesses::.cpu.data     84336566                       # number of WriteReq accesses(hits+misses)
system.cpu.dcache.WriteReq_accesses::total     84336566                       # number of WriteReq accesses(hits+misses)
system.cpu.dcache.WriteReq_miss_rate::.cpu.data     0.124781                       # miss rate for WriteReq accesses
system.cpu.dcache.WriteReq_miss_rate::total     0.124781                       # miss rate for WriteReq accesses
system.cpu.dcache.WriteReq_avg_miss_latency::.cpu.data 105204.103129                       # average WriteReq miss latency
system.cpu.dcache.WriteReq_avg_miss_latency::total 105204.103129                       # average WriteReq miss latency
system.cpu.dcache.WriteReq_mshr_hits::.cpu.data      5260442                       # number of WriteReq MSHR hits
system.cpu.dcache.WriteReq_mshr_hits::total      5260442                       # number of WriteReq MSHR hits
system.cpu.dcache.WriteReq_mshr_misses::.cpu.data      5263184                       # number of WriteReq MSHR misses
system.cpu.dcache.WriteReq_mshr_misses::total      5263184                       # number of WriteReq MSHR misses
system.cpu.dcache.WriteReq_mshr_miss_latency::.cpu.data 540554032000                       # number of WriteReq MSHR miss cycles
system.cpu.dcache.WriteReq_mshr_miss_latency::total 540554032000                       # number of WriteReq MSHR miss cycles
system.cpu.dcache.WriteReq_mshr_miss_rate::.cpu.data     0.062407                       # mshr miss rate for WriteReq accesses
system.cpu.dcache.WriteReq_mshr_miss_rate::total     0.062407                       # mshr miss rate for WriteReq accesses
system.cpu.dcache.WriteReq_avg_mshr_miss_latency::.cpu.data 102704.756664                       # average WriteReq mshr miss latency
system.cpu.dcache.WriteReq_avg_mshr_miss_latency::total 102704.756664                       # average WriteReq mshr miss latency
system.cpu.dcache.SoftPFReq_hits::.cpu.data           34                       # number of SoftPFReq hits
system.cpu.dcache.SoftPFReq_hits::total            34                       # number of SoftPFReq hits
system.cpu.dcache.SoftPFReq_misses::.cpu.data           37                       # number of SoftPFReq misses
system.cpu.dcache.SoftPFReq_misses::total           37                       # number of SoftPFReq misses
system.cpu.dcache.SoftPFReq_accesses::.cpu.data           71                       # number of SoftPFReq accesses(hits+misses)
system.cpu.dcache.SoftPFReq_accesses::total           71                       # number of SoftPFReq accesses(hits+misses)
system.cpu.dcache.SoftPFReq_miss_rate::.cpu.data     0.521127                       # miss rate for SoftPFReq accesses
system.cpu.dcache.SoftPFReq_miss_rate::total     0.521127                       # miss rate for SoftPFReq accesses
system.cpu.dcache.SoftPFReq_mshr_misses::.cpu.data           33                       # number of SoftPFReq MSHR misses
system.cpu.dcache.SoftPFReq_mshr_misses::total           33                       # number of SoftPFReq MSHR misses
system.cpu.dcache.SoftPFReq_mshr_miss_latency::.cpu.data      3403000                       # number of SoftPFReq MSHR miss cycles
system.cpu.dcache.SoftPFReq_mshr_miss_latency::total      3403000                       # number of SoftPFReq MSHR miss cycles
system.cpu.dcache.SoftPFReq_mshr_miss_rate::.cpu.data     0.464789                       # mshr miss rate for SoftPFReq accesses
system.cpu.dcache.SoftPFReq_mshr_miss_rate::total     0.464789                       # mshr miss rate for SoftPFReq accesses
system.cpu.dcache.SoftPFReq_avg_mshr_miss_latency::.cpu.data 103121.212121                       # average SoftPFReq mshr miss latency
system.cpu.dcache.SoftPFReq_avg_mshr_miss_latency::total 103121.212121                       # average SoftPFReq mshr miss latency
system.cpu.dcache.LoadLockedReq_hits::.cpu.data           34                       # number of LoadLockedReq hits
system.cpu.dcache.LoadLockedReq_hits::total           34                       # number of LoadLockedReq hits
system.cpu.dcache.LoadLockedReq_accesses::.cpu.data           34                       # number of LoadLockedReq accesses(hits+misses)
system.cpu.dcache.LoadLockedReq_accesses::total           34                       # number of LoadLockedReq accesses(hits+misses)
system.cpu.dcache.StoreCondReq_hits::.cpu.data           34                       # number of StoreCondReq hits
system.cpu.dcache.StoreCondReq_hits::total           34                       # number of StoreCondReq hits
system.cpu.dcache.StoreCondReq_accesses::.cpu.data           34                       # number of StoreCondReq accesses(hits+misses)
system.cpu.dcache.StoreCondReq_accesses::total           34                       # number of StoreCondReq accesses(hits+misses)
system.cpu.dcache.tags.pwrStateResidencyTicks::UNDEFINED 704063229000                       # Cumulative time (in ticks) in various power states
system.cpu.dcache.tags.tagsinuse           511.922367                       # Cycle average of tags in use
system.cpu.dcache.tags.total_refs            81120275                       # Total number of references to valid blocks.
system.cpu.dcache.tags.sampled_refs           5263686                       # Sample count of references to valid blocks.
system.cpu.dcache.tags.avg_refs             15.411306                       # Average number of references to valid blocks.
system.cpu.dcache.tags.warmup_cycle            223000                       # Cycle when the warmup percentage was hit.
system.cpu.dcache.tags.occ_blocks::.cpu.data   511.922367                       # Average occupied blocks per requestor
system.cpu.dcache.tags.occ_percent::.cpu.data     0.999848                       # Average percentage of cache occupancy
system.cpu.dcache.tags.occ_percent::total     0.999848                       # Average percentage of cache occupancy
system.cpu.dcache.tags.occ_task_id_blocks::1024          512                       # Occupied blocks per task id
system.cpu.dcache.tags.age_task_id_blocks_1024::0           76                       # Occupied blocks per task id
system.cpu.dcache.tags.age_task_id_blocks_1024::1          436                       # Occupied blocks per task id
system.cpu.dcache.tags.occ_task_id_percent::1024            1                       # Percentage of cache occupancy per task id
system.cpu.dcache.tags.tag_accesses         178025168                       # Number of tag accesses
system.cpu.dcache.tags.data_accesses        178025168                       # Number of data accesses
system.cpu.itb.walker.pwrStateResidencyTicks::UNDEFINED 704063229000                       # Cumulative time (in ticks) in various power states
system.cpu.itb.stage2_mmu.stage2_tlb.walker.pwrStateResidencyTicks::UNDEFINED 704063229000                       # Cumulative time (in ticks) in various power states

---------- End Simulation Statistics   ----------
