
---------- Begin Simulation Statistics ----------
final_tick                               392155981000                       # Number of ticks from beginning of simulation (restored from checkpoints and never reset)
host_inst_rate                                 592450                       # Simulator instruction rate (inst/s)
host_mem_usage                                 717004                       # Number of bytes of host memory used
host_op_rate                                   592472                       # Simulator op (including micro ops) rate (op/s)
host_seconds                                   168.79                       # Real time elapsed on the host
host_tick_rate                             2323326377                       # Simulator tick rate (ticks/s)
sim_freq                                 1000000000000                       # Frequency of simulated ticks
sim_insts                                   100000000                       # Number of instructions simulated
sim_ops                                     100003706                       # Number of ops (including micro ops) simulated
sim_seconds                                  0.392156                       # Number of seconds simulated
sim_ticks                                392155981000                       # Number of ticks simulated
system.cpu.branchPred.BTBCorrect                    0                       # Number of correct BTB predictions (this stat may not work properly.
system.cpu.branchPred.BTBHitPct             99.568834                       # BTB Hit Percentage
system.cpu.branchPred.BTBHits                  596952                       # Number of BTB hits
system.cpu.branchPred.BTBLookups               599537                       # Number of BTB lookups
system.cpu.branchPred.RASInCorrect                  7                       # Number of incorrect RAS predictions.
system.cpu.branchPred.condIncorrect               867                       # Number of conditional branches incorrect
system.cpu.branchPred.condPredicted            599791                       # Number of conditional branches predicted
system.cpu.branchPred.indirectHits                163                       # Number of indirect target hits.
system.cpu.branchPred.indirectLookups             364                       # Number of indirect predictor lookups.
system.cpu.branchPred.indirectMisses              201                       # Number of indirect misses.
system.cpu.branchPred.lookups                  601788                       # Number of BP lookups
system.cpu.branchPred.usedRAS                     572                       # Number of times the RAS was used to get a target.
system.cpu.branchPredindirectMispredicted          109                       # Number of mispredicted indirect branches.
system.cpu.committedInsts                   100000000                       # Number of instructions committed
system.cpu.committedOps                     100003706                       # Number of ops (including micro ops) committed
system.cpu.cpi                               3.921560                       # CPI: cycles per instruction
system.cpu.discardedOps                          2624                       # Number of ops (including micro ops) which were discarded before commit
system.cpu.dtb.accesses                             0                       # DTB accesses
system.cpu.dtb.align_faults                         0                       # Number of TLB faults due to alignment restrictions
system.cpu.dtb.domain_faults                        0                       # Number of TLB faults due to domain restrictions
system.cpu.dtb.flush_entries                        0                       # Number of entries that have been flushed from TLB
system.cpu.dtb.flush_tlb                            0                       # Number of times complete TLB was flushed
system.cpu.dtb.flush_tlb_asid                       0                       # Number of times TLB was flushed by ASID
system.cpu.dtb.flush_tlb_mva                        0                       # Number of times TLB was flushed by MVA
system.cpu.dtb.flush_tlb_mva_asid                   0                       # Number of times TLB was flushed by MVA & ASID
system.cpu.dtb.hits                                 0                       # DTB hits
system.cpu.dtb.inst_accesses                        0                       # ITB inst accesses
system.cpu.dtb.inst_hits                            0                       # ITB inst hits
system.cpu.dtb.inst_misses                          0                       # ITB inst misses
system.cpu.dtb.misses                               0                       # DTB misses
system.cpu.dtb.perms_faults                         0                       # Number of TLB faults due to permissions restrictions
system.cpu.dtb.prefetch_faults                      0                       # Number of TLB faults due to prefetch
system.cpu.dtb.read_accesses                        0                       # DTB read accesses
system.cpu.dtb.read_hits                            0                       # DTB read hits
system.cpu.dtb.read_misses                          0                       # DTB read misses
system.cpu.dtb.stage2_mmu.stage2_tlb.accesses            0                       # DTB accesses
system.cpu.dtb.stage2_mmu.stage2_tlb.align_faults            0                       # Number of TLB faults due to alignment restrictions
system.cpu.dtb.stage2_mmu.stage2_tlb.domain_faults            0                       # Number of TLB faults due to domain restrictions
system.cpu.dtb.stage2_mmu.stage2_tlb.flush_entries            0                       # Number of entries that have been flushed from TLB
system.cpu.dtb.stage2_mmu.stage2_tlb.flush_tlb            0                       # Number of times complete TLB was flushed
system.cpu.dtb.stage2_mmu.stage2_tlb.flush_tlb_asid            0                       # Number of times TLB was flushed by ASID
system.cpu.dtb.stage2_mmu.stage2_tlb.flush_tlb_mva            0                       # Number of times TLB was flushed by MVA
system.cpu.dtb.stage2_mmu.stage2_tlb.flush_tlb_mva_asid            0                       # Number of times TLB was flushed by MVA & ASID
system.cpu.dtb.stage2_mmu.stage2_tlb.hits            0                       # DTB hits
system.cpu.dtb.stage2_mmu.stage2_tlb.inst_accesses            0                       # ITB inst accesses
system.cpu.dtb.stage2_mmu.stage2_tlb.inst_hits            0                       # ITB inst hits
system.cpu.dtb.stage2_mmu.stage2_tlb.inst_misses            0                       # ITB inst misses
system.cpu.dtb.stage2_mmu.stage2_tlb.misses            0                       # DTB misses
system.cpu.dtb.stage2_mmu.stage2_tlb.perms_faults            0                       # Number of TLB faults due to permissions restrictions
system.cpu.dtb.stage2_mmu.stage2_tlb.prefetch_faults            0                       # Number of TLB faults due to prefetch
system.cpu.dtb.stage2_mmu.stage2_tlb.read_accesses            0                       # DTB read accesses
system.cpu.dtb.stage2_mmu.stage2_tlb.read_hits            0                       # DTB read hits
system.cpu.dtb.stage2_mmu.stage2_tlb.read_misses            0                       # DTB read misses
system.cpu.dtb.stage2_mmu.stage2_tlb.walker.walkRequestOrigin_Requested::Data            0                       # Table walker requests started/completed, data/inst
system.cpu.dtb.stage2_mmu.stage2_tlb.walker.walkRequestOrigin_Requested::Inst            0                       # Table walker requests started/completed, data/inst
system.cpu.dtb.stage2_mmu.stage2_tlb.walker.walkRequestOrigin_Requested::total            0                       # Table walker requests started/completed, data/inst
system.cpu.dtb.stage2_mmu.stage2_tlb.walker.walkRequestOrigin_Completed::Data            0                       # Table walker requests started/completed, data/inst
system.cpu.dtb.stage2_mmu.stage2_tlb.walker.walkRequestOrigin_Completed::Inst            0                       # Table walker requests started/completed, data/inst
system.cpu.dtb.stage2_mmu.stage2_tlb.walker.walkRequestOrigin_Completed::total            0                       # Table walker requests started/completed, data/inst
system.cpu.dtb.stage2_mmu.stage2_tlb.walker.walkRequestOrigin::total            0                       # Table walker requests started/completed, data/inst
system.cpu.dtb.stage2_mmu.stage2_tlb.walker.walks            0                       # Table walker walks requested
system.cpu.dtb.stage2_mmu.stage2_tlb.write_accesses            0                       # DTB write accesses
system.cpu.dtb.stage2_mmu.stage2_tlb.write_hits            0                       # DTB write hits
system.cpu.dtb.stage2_mmu.stage2_tlb.write_misses            0                       # DTB write misses
system.cpu.dtb.walker.walkRequestOrigin_Requested::Data            0                       # Table walker requests started/completed, data/inst
system.cpu.dtb.walker.walkRequestOrigin_Requested::Inst            0                       # Table walker requests started/completed, data/inst
system.cpu.dtb.walker.walkRequestOrigin_Requested::total            0                       # Table walker requests started/completed, data/inst
system.cpu.dtb.walker.walkRequestOrigin_Completed::Data            0                       # Table walker requests started/completed, data/inst
system.cpu.dtb.walker.walkRequestOrigin_Completed::Inst            0                       # Table walker requests started/completed, data/inst
system.cpu.dtb.walker.walkRequestOrigin_Completed::total            0                       # Table walker requests started/completed, data/inst
system.cpu.dtb.walker.walkRequestOrigin::total            0                       # Table walker requests started/completed, data/inst
system.cpu.dtb.walker.walks                         0                       # Table walker walks requested
system.cpu.dtb.write_accesses                       0                       # DTB write accesses
system.cpu.dtb.write_hits                           0                       # DTB write hits
system.cpu.dtb.write_misses                         0                       # DTB write misses
system.cpu.fetch2.amo_instructions                  0                       # Number of memory atomic instructions successfully decoded
system.cpu.fetch2.fp_instructions                   0                       # Number of floating point instructions successfully decoded
system.cpu.fetch2.int_instructions           49410768                       # Number of integer instructions successfully decoded
system.cpu.fetch2.load_instructions          36900638                       # Number of memory load instructions successfully decoded
system.cpu.fetch2.store_instructions         13094273                       # Number of memory store instructions successfully decoded
system.cpu.fetch2.vec_instructions                  0                       # Number of SIMD instructions successfully decoded
system.cpu.idleCycles                       270120541                       # Total number of cycles that the object has spent stopped
system.cpu.ipc                               0.255001                       # IPC: instructions per cycle
system.cpu.itb.accesses                             0                       # DTB accesses
system.cpu.itb.align_faults                         0                       # Number of TLB faults due to alignment restrictions
system.cpu.itb.domain_faults                        0                       # Number of TLB faults due to domain restrictions
system.cpu.itb.flush_entries                        0                       # Number of entries that have been flushed from TLB
system.cpu.itb.flush_tlb                            0                       # Number of times complete TLB was flushed
system.cpu.itb.flush_tlb_asid                       0                       # Number of times TLB was flushed by ASID
system.cpu.itb.flush_tlb_mva                        0                       # Number of times TLB was flushed by MVA
system.cpu.itb.flush_tlb_mva_asid                   0                       # Number of times TLB was flushed by MVA & ASID
system.cpu.itb.hits                                 0                       # DTB hits
system.cpu.itb.inst_accesses                        0                       # ITB inst accesses
system.cpu.itb.inst_hits                            0                       # ITB inst hits
system.cpu.itb.inst_misses                          0                       # ITB inst misses
system.cpu.itb.misses                               0                       # DTB misses
system.cpu.itb.perms_faults                         0                       # Number of TLB faults due to permissions restrictions
system.cpu.itb.prefetch_faults                      0                       # Number of TLB faults due to prefetch
system.cpu.itb.read_accesses                        0                       # DTB read accesses
system.cpu.itb.read_hits                            0                       # DTB read hits
system.cpu.itb.read_misses                          0                       # DTB read misses
system.cpu.itb.stage2_mmu.stage2_tlb.accesses            0                       # DTB accesses
system.cpu.itb.stage2_mmu.stage2_tlb.align_faults            0                       # Number of TLB faults due to alignment restrictions
system.cpu.itb.stage2_mmu.stage2_tlb.domain_faults            0                       # Number of TLB faults due to domain restrictions
system.cpu.itb.stage2_mmu.stage2_tlb.flush_entries            0                       # Number of entries that have been flushed from TLB
system.cpu.itb.stage2_mmu.stage2_tlb.flush_tlb            0                       # Number of times complete TLB was flushed
system.cpu.itb.stage2_mmu.stage2_tlb.flush_tlb_asid            0                       # Number of times TLB was flushed by ASID
system.cpu.itb.stage2_mmu.stage2_tlb.flush_tlb_mva            0                       # Number of times TLB was flushed by MVA
system.cpu.itb.stage2_mmu.stage2_tlb.flush_tlb_mva_asid            0                       # Number of times TLB was flushed by MVA & ASID
system.cpu.itb.stage2_mmu.stage2_tlb.hits            0                       # DTB hits
system.cpu.itb.stage2_mmu.stage2_tlb.inst_accesses            0                       # ITB inst accesses
system.cpu.itb.stage2_mmu.stage2_tlb.inst_hits            0                       # ITB inst hits
system.cpu.itb.stage2_mmu.stage2_tlb.inst_misses            0                       # ITB inst misses
system.cpu.itb.stage2_mmu.stage2_tlb.misses            0                       # DTB misses
system.cpu.itb.stage2_mmu.stage2_tlb.perms_faults            0                       # Number of TLB faults due to permissions restrictions
system.cpu.itb.stage2_mmu.stage2_tlb.prefetch_faults            0                       # Number of TLB faults due to prefetch
system.cpu.itb.stage2_mmu.stage2_tlb.read_accesses            0                       # DTB read accesses
system.cpu.itb.stage2_mmu.stage2_tlb.read_hits            0                       # DTB read hits
system.cpu.itb.stage2_mmu.stage2_tlb.read_misses            0                       # DTB read misses
system.cpu.itb.stage2_mmu.stage2_tlb.walker.walkRequestOrigin_Requested::Data            0                       # Table walker requests started/completed, data/inst
system.cpu.itb.stage2_mmu.stage2_tlb.walker.walkRequestOrigin_Requested::Inst            0                       # Table walker requests started/completed, data/inst
system.cpu.itb.stage2_mmu.stage2_tlb.walker.walkRequestOrigin_Requested::total            0                       # Table walker requests started/completed, data/inst
system.cpu.itb.stage2_mmu.stage2_tlb.walker.walkRequestOrigin_Completed::Data            0                       # Table walker requests started/completed, data/inst
system.cpu.itb.stage2_mmu.stage2_tlb.walker.walkRequestOrigin_Completed::Inst            0                       # Table walker requests started/completed, data/inst
system.cpu.itb.stage2_mmu.stage2_tlb.walker.walkRequestOrigin_Completed::total            0                       # Table walker requests started/completed, data/inst
system.cpu.itb.stage2_mmu.stage2_tlb.walker.walkRequestOrigin::total            0                       # Table walker requests started/completed, data/inst
system.cpu.itb.stage2_mmu.stage2_tlb.walker.walks            0                       # Table walker walks requested
system.cpu.itb.stage2_mmu.stage2_tlb.write_accesses            0                       # DTB write accesses
system.cpu.itb.stage2_mmu.stage2_tlb.write_hits            0                       # DTB write hits
system.cpu.itb.stage2_mmu.stage2_tlb.write_misses            0                       # DTB write misses
system.cpu.itb.walker.walkRequestOrigin_Requested::Data            0                       # Table walker requests started/completed, data/inst
system.cpu.itb.walker.walkRequestOrigin_Requested::Inst            0                       # Table walker requests started/completed, data/inst
system.cpu.itb.walker.walkRequestOrigin_Requested::total            0                       # Table walker requests started/completed, data/inst
system.cpu.itb.walker.walkRequestOrigin_Completed::Data            0                       # Table walker requests started/completed, data/inst
system.cpu.itb.walker.walkRequestOrigin_Completed::Inst            0                       # Table walker requests started/completed, data/inst
system.cpu.itb.walker.walkRequestOrigin_Completed::total            0                       # Table walker requests started/completed, data/inst
system.cpu.itb.walker.walkRequestOrigin::total            0                       # Table walker requests started/completed, data/inst
system.cpu.itb.walker.walks                         0                       # Table walker walks requested
system.cpu.itb.write_accesses                       0                       # DTB write accesses
system.cpu.itb.write_hits                           0                       # DTB write hits
system.cpu.itb.write_misses                         0                       # DTB write misses
system.cpu.numCycles                        392155981                       # number of cpu cycles simulated
system.cpu.numFetchSuspends                         0                       # Number of times Execute suspended instruction fetching
system.cpu.numWorkItemsCompleted                    0                       # number of work items this cpu completed
system.cpu.numWorkItemsStarted                      0                       # number of work items this cpu started
system.cpu.op_class_0::No_OpClass                   0      0.00%      0.00% # Class of committed instruction
system.cpu.op_class_0::IntAlu                50007137     50.01%     50.01% # Class of committed instruction
system.cpu.op_class_0::IntMult                     85      0.00%     50.01% # Class of committed instruction
system.cpu.op_class_0::IntDiv                       0      0.00%     50.01% # Class of committed instruction
system.cpu.op_class_0::FloatAdd                     0      0.00%     50.01% # Class of committed instruction
system.cpu.op_class_0::FloatCmp                     0      0.00%     50.01% # Class of committed instruction
system.cpu.op_class_0::FloatCvt                     0      0.00%     50.01% # Class of committed instruction
system.cpu.op_class_0::FloatMult                    0      0.00%     50.01% # Class of committed instruction
system.cpu.op_class_0::FloatMultAcc                 0      0.00%     50.01% # Class of committed instruction
system.cpu.op_class_0::FloatDiv                     0      0.00%     50.01% # Class of committed instruction
system.cpu.op_class_0::FloatMisc                    0      0.00%     50.01% # Class of committed instruction
system.cpu.op_class_0::FloatSqrt                    0      0.00%     50.01% # Class of committed instruction
system.cpu.op_class_0::SimdAdd                      0      0.00%     50.01% # Class of committed instruction
system.cpu.op_class_0::SimdAddAcc                   0      0.00%     50.01% # Class of committed instruction
system.cpu.op_class_0::SimdAlu                      0      0.00%     50.01% # Class of committed instruction
system.cpu.op_class_0::SimdCmp                      0      0.00%     50.01% # Class of committed instruction
system.cpu.op_class_0::SimdCvt                      0      0.00%     50.01% # Class of committed instruction
system.cpu.op_class_0::SimdMisc                     0      0.00%     50.01% # Class of committed instruction
system.cpu.op_class_0::SimdMult                     0      0.00%     50.01% # Class of committed instruction
system.cpu.op_class_0::SimdMultAcc                  0      0.00%     50.01% # Class of committed instruction
system.cpu.op_class_0::SimdShift                    0      0.00%     50.01% # Class of committed instruction
system.cpu.op_class_0::SimdShiftAcc                 0      0.00%     50.01% # Class of committed instruction
system.cpu.op_class_0::SimdDiv                      0      0.00%     50.01% # Class of committed instruction
system.cpu.op_class_0::SimdSqrt                     0      0.00%     50.01% # Class of committed instruction
system.cpu.op_class_0::SimdFloatAdd                 0      0.00%     50.01% # Class of committed instruction
system.cpu.op_class_0::SimdFloatAlu                 0      0.00%     50.01% # Class of committed instruction
system.cpu.op_class_0::SimdFloatCmp                 2      0.00%     50.01% # Class of committed instruction
system.cpu.op_class_0::SimdFloatCvt                 0      0.00%     50.01% # Class of committed instruction
system.cpu.op_class_0::SimdFloatDiv                 0      0.00%     50.01% # Class of committed instruction
system.cpu.op_class_0::SimdFloatMisc               22      0.00%     50.01% # Class of committed instruction
system.cpu.op_class_0::SimdFloatMult                0      0.00%     50.01% # Class of committed instruction
system.cpu.op_class_0::SimdFloatMultAcc             0      0.00%     50.01% # Class of committed instruction
system.cpu.op_class_0::SimdFloatSqrt                0      0.00%     50.01% # Class of committed instruction
system.cpu.op_class_0::SimdReduceAdd                0      0.00%     50.01% # Class of committed instruction
system.cpu.op_class_0::SimdReduceAlu                0      0.00%     50.01% # Class of committed instruction
system.cpu.op_class_0::SimdReduceCmp                0      0.00%     50.01% # Class of committed instruction
system.cpu.op_class_0::SimdFloatReduceAdd            0      0.00%     50.01% # Class of committed instruction
system.cpu.op_class_0::SimdFloatReduceCmp            0      0.00%     50.01% # Class of committed instruction
system.cpu.op_class_0::SimdAes                      0      0.00%     50.01% # Class of committed instruction
system.cpu.op_class_0::SimdAesMix                   0      0.00%     50.01% # Class of committed instruction
system.cpu.op_class_0::SimdSha1Hash                 0      0.00%     50.01% # Class of committed instruction
system.cpu.op_class_0::SimdSha1Hash2                0      0.00%     50.01% # Class of committed instruction
system.cpu.op_class_0::SimdSha256Hash               0      0.00%     50.01% # Class of committed instruction
system.cpu.op_class_0::SimdSha256Hash2              0      0.00%     50.01% # Class of committed instruction
system.cpu.op_class_0::SimdShaSigma2                0      0.00%     50.01% # Class of committed instruction
system.cpu.op_class_0::SimdShaSigma3                0      0.00%     50.01% # Class of committed instruction
system.cpu.op_class_0::SimdPredAlu                  0      0.00%     50.01% # Class of committed instruction
system.cpu.op_class_0::MemRead               36900809     36.90%     86.90% # Class of committed instruction
system.cpu.op_class_0::MemWrite              13095651     13.10%    100.00% # Class of committed instruction
system.cpu.op_class_0::FloatMemRead                 0      0.00%    100.00% # Class of committed instruction
system.cpu.op_class_0::FloatMemWrite                0      0.00%    100.00% # Class of committed instruction
system.cpu.op_class_0::IprAccess                    0      0.00%    100.00% # Class of committed instruction
system.cpu.op_class_0::InstPrefetch                 0      0.00%    100.00% # Class of committed instruction
system.cpu.op_class_0::total                100003706                       # Class of committed instruction
system.cpu.tickCycles                       122035440                       # Number of cycles that the object actually ticked
system.cpu.workload.numSyscalls                    18                       # Number of system calls
system.membus.snoop_filter.hit_multi_requests            0                       # Number of requests hitting in the snoop filter with multiple (>1) holders of the requested data.
system.membus.snoop_filter.hit_multi_snoops            0                       # Number of snoops hitting in the snoop filter with multiple (>1) holders of the requested data.
system.membus.snoop_filter.hit_single_requests      2910487                       # Number of requests hitting in the snoop filter with a single holder of the requested data.
system.membus.snoop_filter.hit_single_snoops            0                       # Number of snoops hitting in the snoop filter with a single holder of the requested data.
system.membus.snoop_filter.tot_requests       5887085                       # Total number of requests made to the snoop filter.
system.membus.snoop_filter.tot_snoops               0                       # Total number of snoops made to the snoop filter.
system.tol2bus.snoop_filter.hit_multi_requests           24                       # Number of requests hitting in the snoop filter with multiple (>1) holders of the requested data.
system.tol2bus.snoop_filter.hit_multi_snoops            1                       # Number of snoops hitting in the snoop filter with multiple (>1) holders of the requested data.
system.tol2bus.snoop_filter.hit_single_requests      2974046                       # Number of requests hitting in the snoop filter with a single holder of the requested data.
system.tol2bus.snoop_filter.hit_single_snoops          574                       # Number of snoops hitting in the snoop filter with a single holder of the requested data.
system.tol2bus.snoop_filter.tot_requests      5950712                       # Total number of requests made to the snoop filter.
system.tol2bus.snoop_filter.tot_snoops            575                       # Total number of snoops made to the snoop filter.
system.membus.pwrStateResidencyTicks::UNDEFINED 392155981000                       # Cumulative time (in ticks) in various power states
system.membus.trans_dist::ReadResp                926                       # Transaction distribution
system.membus.trans_dist::WritebackDirty      2910159                       # Transaction distribution
system.membus.trans_dist::CleanEvict              328                       # Transaction distribution
system.membus.trans_dist::ReadExReq           2975672                       # Transaction distribution
system.membus.trans_dist::ReadExResp          2975672                       # Transaction distribution
system.membus.trans_dist::ReadSharedReq           926                       # Transaction distribution
system.membus.pkt_count_system.l2.mem_side::system.mem_ctrls.port      8863683                       # Packet count per connected master and slave (bytes)
system.membus.pkt_count::total                8863683                       # Packet count per connected master and slave (bytes)
system.membus.pkt_size_system.l2.mem_side::system.mem_ctrls.port    188376224                       # Cumulative packet size per connected master and slave (bytes)
system.membus.pkt_size::total               188376224                       # Cumulative packet size per connected master and slave (bytes)
system.membus.snoops                                0                       # Total snoops (count)
system.membus.snoopTraffic                          0                       # Total snoop traffic (bytes)
system.membus.snoop_fanout::samples           2976598                       # Request fanout histogram
system.membus.snoop_fanout::mean                    0                       # Request fanout histogram
system.membus.snoop_fanout::stdev                   0                       # Request fanout histogram
system.membus.snoop_fanout::underflows              0      0.00%      0.00% # Request fanout histogram
system.membus.snoop_fanout::0                 2976598    100.00%    100.00% # Request fanout histogram
system.membus.snoop_fanout::1                       0      0.00%    100.00% # Request fanout histogram
system.membus.snoop_fanout::overflows               0      0.00%    100.00% # Request fanout histogram
system.membus.snoop_fanout::min_value               0                       # Request fanout histogram
system.membus.snoop_fanout::max_value               0                       # Request fanout histogram
system.membus.snoop_fanout::total             2976598                       # Request fanout histogram
system.membus.respLayer1.occupancy         9720322750                       # Layer occupancy (ticks)
system.membus.respLayer1.utilization              2.5                       # Layer utilization (%)
system.membus.reqLayer0.occupancy         11707403000                       # Layer occupancy (ticks)
system.membus.reqLayer0.utilization               3.0                       # Layer utilization (%)
system.tol2bus.pwrStateResidencyTicks::UNDEFINED 392155981000                       # Cumulative time (in ticks) in various power states
system.tol2bus.trans_dist::ReadResp               995                       # Transaction distribution
system.tol2bus.trans_dist::WritebackDirty      5883808                       # Transaction distribution
system.tol2bus.trans_dist::WritebackClean          242                       # Transaction distribution
system.tol2bus.trans_dist::CleanEvict            1057                       # Transaction distribution
system.tol2bus.trans_dist::ReadExReq          2975672                       # Transaction distribution
system.tol2bus.trans_dist::ReadExResp         2975672                       # Transaction distribution
system.tol2bus.trans_dist::ReadCleanReq           816                       # Transaction distribution
system.tol2bus.trans_dist::ReadSharedReq          179                       # Transaction distribution
system.tol2bus.pkt_count_system.cpu.icache.mem_side::system.l2.cpu_side         1874                       # Packet count per connected master and slave (bytes)
system.tol2bus.pkt_count_system.cpu.dcache.mem_side::system.l2.cpu_side      8925505                       # Packet count per connected master and slave (bytes)
system.tol2bus.pkt_count::total               8927379                       # Packet count per connected master and slave (bytes)
system.tol2bus.pkt_size_system.cpu.icache.mem_side::system.l2.cpu_side        33856                       # Cumulative packet size per connected master and slave (bytes)
system.tol2bus.pkt_size_system.cpu.dcache.mem_side::system.l2.cpu_side    190384000                       # Cumulative packet size per connected master and slave (bytes)
system.tol2bus.pkt_size::total              190417856                       # Cumulative packet size per connected master and slave (bytes)
system.tol2bus.snoops                         2911062                       # Total snoops (count)
system.tol2bus.snoopTraffic                  93125088                       # Total snoop traffic (bytes)
system.tol2bus.snoop_fanout::samples          5887729                       # Request fanout histogram
system.tol2bus.snoop_fanout::mean            0.000102                       # Request fanout histogram
system.tol2bus.snoop_fanout::stdev           0.010120                       # Request fanout histogram
system.tol2bus.snoop_fanout::underflows             0      0.00%      0.00% # Request fanout histogram
system.tol2bus.snoop_fanout::0                5887129     99.99%     99.99% # Request fanout histogram
system.tol2bus.snoop_fanout::1                    599      0.01%    100.00% # Request fanout histogram
system.tol2bus.snoop_fanout::2                      1      0.00%    100.00% # Request fanout histogram
system.tol2bus.snoop_fanout::overflows              0      0.00%    100.00% # Request fanout histogram
system.tol2bus.snoop_fanout::min_value              0                       # Request fanout histogram
system.tol2bus.snoop_fanout::max_value              2                       # Request fanout histogram
system.tol2bus.snoop_fanout::total            5887729                       # Request fanout histogram
system.tol2bus.reqLayer0.occupancy         8924603000                       # Layer occupancy (ticks)
system.tol2bus.reqLayer0.utilization              2.3                       # Layer utilization (%)
system.tol2bus.respLayer1.occupancy        5951705996                       # Layer occupancy (ticks)
system.tol2bus.respLayer1.utilization             1.5                       # Layer utilization (%)
system.tol2bus.respLayer0.occupancy           1632999                       # Layer occupancy (ticks)
system.tol2bus.respLayer0.utilization             0.0                       # Layer utilization (%)
system.voltage_domain.voltage                       1                       # Voltage in Volts
system.clk_domain.clock                          1000                       # Clock period in ticks
system.l2.pwrStateResidencyTicks::UNDEFINED 392155981000                       # Cumulative time (in ticks) in various power states
system.l2.demand_hits::.cpu.inst                   55                       # number of demand (read+write) hits
system.l2.demand_hits::.cpu.data                    9                       # number of demand (read+write) hits
system.l2.demand_hits::total                       64                       # number of demand (read+write) hits
system.l2.overall_hits::.cpu.inst                  55                       # number of overall hits
system.l2.overall_hits::.cpu.data                   9                       # number of overall hits
system.l2.overall_hits::total                      64                       # number of overall hits
system.l2.demand_misses::.cpu.inst                761                       # number of demand (read+write) misses
system.l2.demand_misses::.cpu.data            2975842                       # number of demand (read+write) misses
system.l2.demand_misses::total                2976603                       # number of demand (read+write) misses
system.l2.overall_misses::.cpu.inst               761                       # number of overall misses
system.l2.overall_misses::.cpu.data           2975842                       # number of overall misses
system.l2.overall_misses::total               2976603                       # number of overall misses
system.l2.demand_miss_latency::.cpu.inst     73380000                       # number of demand (read+write) miss cycles
system.l2.demand_miss_latency::.cpu.data 289114979000                       # number of demand (read+write) miss cycles
system.l2.demand_miss_latency::total     289188359000                       # number of demand (read+write) miss cycles
system.l2.overall_miss_latency::.cpu.inst     73380000                       # number of overall miss cycles
system.l2.overall_miss_latency::.cpu.data 289114979000                       # number of overall miss cycles
system.l2.overall_miss_latency::total    289188359000                       # number of overall miss cycles
system.l2.demand_accesses::.cpu.inst              816                       # number of demand (read+write) accesses
system.l2.demand_accesses::.cpu.data          2975851                       # number of demand (read+write) accesses
system.l2.demand_accesses::total              2976667                       # number of demand (read+write) accesses
system.l2.overall_accesses::.cpu.inst             816                       # number of overall (read+write) accesses
system.l2.overall_accesses::.cpu.data         2975851                       # number of overall (read+write) accesses
system.l2.overall_accesses::total             2976667                       # number of overall (read+write) accesses
system.l2.demand_miss_rate::.cpu.inst        0.932598                       # miss rate for demand accesses
system.l2.demand_miss_rate::.cpu.data        0.999997                       # miss rate for demand accesses
system.l2.demand_miss_rate::total            0.999978                       # miss rate for demand accesses
system.l2.overall_miss_rate::.cpu.inst       0.932598                       # miss rate for overall accesses
system.l2.overall_miss_rate::.cpu.data       0.999997                       # miss rate for overall accesses
system.l2.overall_miss_rate::total           0.999978                       # miss rate for overall accesses
system.l2.demand_avg_miss_latency::.cpu.inst 96425.755585                       # average overall miss latency
system.l2.demand_avg_miss_latency::.cpu.data 97154.008513                       # average overall miss latency
system.l2.demand_avg_miss_latency::total 97153.822327                       # average overall miss latency
system.l2.overall_avg_miss_latency::.cpu.inst 96425.755585                       # average overall miss latency
system.l2.overall_avg_miss_latency::.cpu.data 97154.008513                       # average overall miss latency
system.l2.overall_avg_miss_latency::total 97153.822327                       # average overall miss latency
system.l2.blocked_cycles::no_mshrs                  0                       # number of cycles access was blocked
system.l2.blocked_cycles::no_targets                0                       # number of cycles access was blocked
system.l2.blocked::no_mshrs                         0                       # number of cycles access was blocked
system.l2.blocked::no_targets                       0                       # number of cycles access was blocked
system.l2.avg_blocked_cycles::no_mshrs            nan                       # average number of cycles each access was blocked
system.l2.avg_blocked_cycles::no_targets          nan                       # average number of cycles each access was blocked
system.l2.writebacks::.writebacks             2910159                       # number of writebacks
system.l2.writebacks::total                   2910159                       # number of writebacks
system.l2.demand_mshr_hits::.cpu.inst               1                       # number of demand (read+write) MSHR hits
system.l2.demand_mshr_hits::.cpu.data               4                       # number of demand (read+write) MSHR hits
system.l2.demand_mshr_hits::total                   5                       # number of demand (read+write) MSHR hits
system.l2.overall_mshr_hits::.cpu.inst              1                       # number of overall MSHR hits
system.l2.overall_mshr_hits::.cpu.data              4                       # number of overall MSHR hits
system.l2.overall_mshr_hits::total                  5                       # number of overall MSHR hits
system.l2.demand_mshr_misses::.cpu.inst           760                       # number of demand (read+write) MSHR misses
system.l2.demand_mshr_misses::.cpu.data       2975838                       # number of demand (read+write) MSHR misses
system.l2.demand_mshr_misses::total           2976598                       # number of demand (read+write) MSHR misses
system.l2.overall_mshr_misses::.cpu.inst          760                       # number of overall MSHR misses
system.l2.overall_mshr_misses::.cpu.data      2975838                       # number of overall MSHR misses
system.l2.overall_mshr_misses::total          2976598                       # number of overall MSHR misses
system.l2.demand_mshr_miss_latency::.cpu.inst     58103000                       # number of demand (read+write) MSHR miss cycles
system.l2.demand_mshr_miss_latency::.cpu.data 229597882000                       # number of demand (read+write) MSHR miss cycles
system.l2.demand_mshr_miss_latency::total 229655985000                       # number of demand (read+write) MSHR miss cycles
system.l2.overall_mshr_miss_latency::.cpu.inst     58103000                       # number of overall MSHR miss cycles
system.l2.overall_mshr_miss_latency::.cpu.data 229597882000                       # number of overall MSHR miss cycles
system.l2.overall_mshr_miss_latency::total 229655985000                       # number of overall MSHR miss cycles
system.l2.demand_mshr_miss_rate::.cpu.inst     0.931373                       # mshr miss rate for demand accesses
system.l2.demand_mshr_miss_rate::.cpu.data     0.999996                       # mshr miss rate for demand accesses
system.l2.demand_mshr_miss_rate::total       0.999977                       # mshr miss rate for demand accesses
system.l2.overall_mshr_miss_rate::.cpu.inst     0.931373                       # mshr miss rate for overall accesses
system.l2.overall_mshr_miss_rate::.cpu.data     0.999996                       # mshr miss rate for overall accesses
system.l2.overall_mshr_miss_rate::total      0.999977                       # mshr miss rate for overall accesses
system.l2.demand_avg_mshr_miss_latency::.cpu.inst 76451.315789                       # average overall mshr miss latency
system.l2.demand_avg_mshr_miss_latency::.cpu.data 77154.025858                       # average overall mshr miss latency
system.l2.demand_avg_mshr_miss_latency::total 77153.846438                       # average overall mshr miss latency
system.l2.overall_avg_mshr_miss_latency::.cpu.inst 76451.315789                       # average overall mshr miss latency
system.l2.overall_avg_mshr_miss_latency::.cpu.data 77154.025858                       # average overall mshr miss latency
system.l2.overall_avg_mshr_miss_latency::total 77153.846438                       # average overall mshr miss latency
system.l2.replacements                        2911062                       # number of replacements
system.l2.WritebackDirty_hits::.writebacks      2973649                       # number of WritebackDirty hits
system.l2.WritebackDirty_hits::total          2973649                       # number of WritebackDirty hits
system.l2.WritebackDirty_accesses::.writebacks      2973649                       # number of WritebackDirty accesses(hits+misses)
system.l2.WritebackDirty_accesses::total      2973649                       # number of WritebackDirty accesses(hits+misses)
system.l2.WritebackClean_hits::.writebacks          236                       # number of WritebackClean hits
system.l2.WritebackClean_hits::total              236                       # number of WritebackClean hits
system.l2.WritebackClean_accesses::.writebacks          236                       # number of WritebackClean accesses(hits+misses)
system.l2.WritebackClean_accesses::total          236                       # number of WritebackClean accesses(hits+misses)
system.l2.ReadExReq_misses::.cpu.data         2975672                       # number of ReadExReq misses
system.l2.ReadExReq_misses::total             2975672                       # number of ReadExReq misses
system.l2.ReadExReq_miss_latency::.cpu.data 289096847000                       # number of ReadExReq miss cycles
system.l2.ReadExReq_miss_latency::total  289096847000                       # number of ReadExReq miss cycles
system.l2.ReadExReq_accesses::.cpu.data       2975672                       # number of ReadExReq accesses(hits+misses)
system.l2.ReadExReq_accesses::total           2975672                       # number of ReadExReq accesses(hits+misses)
system.l2.ReadExReq_miss_rate::.cpu.data            1                       # miss rate for ReadExReq accesses
system.l2.ReadExReq_miss_rate::total                1                       # miss rate for ReadExReq accesses
system.l2.ReadExReq_avg_miss_latency::.cpu.data 97153.465503                       # average ReadExReq miss latency
system.l2.ReadExReq_avg_miss_latency::total 97153.465503                       # average ReadExReq miss latency
system.l2.ReadExReq_mshr_misses::.cpu.data      2975672                       # number of ReadExReq MSHR misses
system.l2.ReadExReq_mshr_misses::total        2975672                       # number of ReadExReq MSHR misses
system.l2.ReadExReq_mshr_miss_latency::.cpu.data 229583407000                       # number of ReadExReq MSHR miss cycles
system.l2.ReadExReq_mshr_miss_latency::total 229583407000                       # number of ReadExReq MSHR miss cycles
system.l2.ReadExReq_mshr_miss_rate::.cpu.data            1                       # mshr miss rate for ReadExReq accesses
system.l2.ReadExReq_mshr_miss_rate::total            1                       # mshr miss rate for ReadExReq accesses
system.l2.ReadExReq_avg_mshr_miss_latency::.cpu.data 77153.465503                       # average ReadExReq mshr miss latency
system.l2.ReadExReq_avg_mshr_miss_latency::total 77153.465503                       # average ReadExReq mshr miss latency
system.l2.ReadCleanReq_hits::.cpu.inst             55                       # number of ReadCleanReq hits
system.l2.ReadCleanReq_hits::total                 55                       # number of ReadCleanReq hits
system.l2.ReadCleanReq_misses::.cpu.inst          761                       # number of ReadCleanReq misses
system.l2.ReadCleanReq_misses::total              761                       # number of ReadCleanReq misses
system.l2.ReadCleanReq_miss_latency::.cpu.inst     73380000                       # number of ReadCleanReq miss cycles
system.l2.ReadCleanReq_miss_latency::total     73380000                       # number of ReadCleanReq miss cycles
system.l2.ReadCleanReq_accesses::.cpu.inst          816                       # number of ReadCleanReq accesses(hits+misses)
system.l2.ReadCleanReq_accesses::total            816                       # number of ReadCleanReq accesses(hits+misses)
system.l2.ReadCleanReq_miss_rate::.cpu.inst     0.932598                       # miss rate for ReadCleanReq accesses
system.l2.ReadCleanReq_miss_rate::total      0.932598                       # miss rate for ReadCleanReq accesses
system.l2.ReadCleanReq_avg_miss_latency::.cpu.inst 96425.755585                       # average ReadCleanReq miss latency
system.l2.ReadCleanReq_avg_miss_latency::total 96425.755585                       # average ReadCleanReq miss latency
system.l2.ReadCleanReq_mshr_hits::.cpu.inst            1                       # number of ReadCleanReq MSHR hits
system.l2.ReadCleanReq_mshr_hits::total             1                       # number of ReadCleanReq MSHR hits
system.l2.ReadCleanReq_mshr_misses::.cpu.inst          760                       # number of ReadCleanReq MSHR misses
system.l2.ReadCleanReq_mshr_misses::total          760                       # number of ReadCleanReq MSHR misses
system.l2.ReadCleanReq_mshr_miss_latency::.cpu.inst     58103000                       # number of ReadCleanReq MSHR miss cycles
system.l2.ReadCleanReq_mshr_miss_latency::total     58103000                       # number of ReadCleanReq MSHR miss cycles
system.l2.ReadCleanReq_mshr_miss_rate::.cpu.inst     0.931373                       # mshr miss rate for ReadCleanReq accesses
system.l2.ReadCleanReq_mshr_miss_rate::total     0.931373                       # mshr miss rate for ReadCleanReq accesses
system.l2.ReadCleanReq_avg_mshr_miss_latency::.cpu.inst 76451.315789                       # average ReadCleanReq mshr miss latency
system.l2.ReadCleanReq_avg_mshr_miss_latency::total 76451.315789                       # average ReadCleanReq mshr miss latency
system.l2.ReadSharedReq_hits::.cpu.data             9                       # number of ReadSharedReq hits
system.l2.ReadSharedReq_hits::total                 9                       # number of ReadSharedReq hits
system.l2.ReadSharedReq_misses::.cpu.data          170                       # number of ReadSharedReq misses
system.l2.ReadSharedReq_misses::total             170                       # number of ReadSharedReq misses
system.l2.ReadSharedReq_miss_latency::.cpu.data     18132000                       # number of ReadSharedReq miss cycles
system.l2.ReadSharedReq_miss_latency::total     18132000                       # number of ReadSharedReq miss cycles
system.l2.ReadSharedReq_accesses::.cpu.data          179                       # number of ReadSharedReq accesses(hits+misses)
system.l2.ReadSharedReq_accesses::total           179                       # number of ReadSharedReq accesses(hits+misses)
system.l2.ReadSharedReq_miss_rate::.cpu.data     0.949721                       # miss rate for ReadSharedReq accesses
system.l2.ReadSharedReq_miss_rate::total     0.949721                       # miss rate for ReadSharedReq accesses
system.l2.ReadSharedReq_avg_miss_latency::.cpu.data 106658.823529                       # average ReadSharedReq miss latency
system.l2.ReadSharedReq_avg_miss_latency::total 106658.823529                       # average ReadSharedReq miss latency
system.l2.ReadSharedReq_mshr_hits::.cpu.data            4                       # number of ReadSharedReq MSHR hits
system.l2.ReadSharedReq_mshr_hits::total            4                       # number of ReadSharedReq MSHR hits
system.l2.ReadSharedReq_mshr_misses::.cpu.data          166                       # number of ReadSharedReq MSHR misses
system.l2.ReadSharedReq_mshr_misses::total          166                       # number of ReadSharedReq MSHR misses
system.l2.ReadSharedReq_mshr_miss_latency::.cpu.data     14475000                       # number of ReadSharedReq MSHR miss cycles
system.l2.ReadSharedReq_mshr_miss_latency::total     14475000                       # number of ReadSharedReq MSHR miss cycles
system.l2.ReadSharedReq_mshr_miss_rate::.cpu.data     0.927374                       # mshr miss rate for ReadSharedReq accesses
system.l2.ReadSharedReq_mshr_miss_rate::total     0.927374                       # mshr miss rate for ReadSharedReq accesses
system.l2.ReadSharedReq_avg_mshr_miss_latency::.cpu.data 87198.795181                       # average ReadSharedReq mshr miss latency
system.l2.ReadSharedReq_avg_mshr_miss_latency::total 87198.795181                       # average ReadSharedReq mshr miss latency
system.l2.tags.pwrStateResidencyTicks::UNDEFINED 392155981000                       # Cumulative time (in ticks) in various power states
system.l2.tags.tagsinuse                 64827.126151                       # Cycle average of tags in use
system.l2.tags.total_refs                     5950683                       # Total number of references to valid blocks.
system.l2.tags.sampled_refs                   2976598                       # Sample count of references to valid blocks.
system.l2.tags.avg_refs                      1.999156                       # Average number of references to valid blocks.
system.l2.tags.warmup_cycle                     87000                       # Cycle when the warmup percentage was hit.
system.l2.tags.occ_blocks::.cpu.inst        15.480560                       # Average occupied blocks per requestor
system.l2.tags.occ_blocks::.cpu.data     64811.645591                       # Average occupied blocks per requestor
system.l2.tags.occ_percent::.cpu.inst        0.000236                       # Average percentage of cache occupancy
system.l2.tags.occ_percent::.cpu.data        0.988947                       # Average percentage of cache occupancy
system.l2.tags.occ_percent::total            0.989183                       # Average percentage of cache occupancy
system.l2.tags.occ_task_id_blocks::1024         65536                       # Occupied blocks per task id
system.l2.tags.age_task_id_blocks_1024::0           75                       # Occupied blocks per task id
system.l2.tags.age_task_id_blocks_1024::1          683                       # Occupied blocks per task id
system.l2.tags.age_task_id_blocks_1024::2         6829                       # Occupied blocks per task id
system.l2.tags.age_task_id_blocks_1024::3        57949                       # Occupied blocks per task id
system.l2.tags.occ_task_id_percent::1024            1                       # Percentage of cache occupancy per task id
system.l2.tags.tag_accesses                  50582102                       # Number of tag accesses
system.l2.tags.data_accesses                 50582102                       # Number of data accesses
system.cpu_voltage_domain.voltage                   1                       # Voltage in Volts
system.mem_ctrls.pwrStateResidencyTicks::UNDEFINED 392155981000                       # Cumulative time (in ticks) in various power states
system.mem_ctrls.bytes_read::.cpu.inst          24320                       # Number of bytes read from this memory
system.mem_ctrls.bytes_read::.cpu.data       95226816                       # Number of bytes read from this memory
system.mem_ctrls.bytes_read::total           95251136                       # Number of bytes read from this memory
system.mem_ctrls.bytes_inst_read::.cpu.inst        24320                       # Number of instructions bytes read from this memory
system.mem_ctrls.bytes_inst_read::total         24320                       # Number of instructions bytes read from this memory
system.mem_ctrls.bytes_written::.writebacks     93125088                       # Number of bytes written to this memory
system.mem_ctrls.bytes_written::total        93125088                       # Number of bytes written to this memory
system.mem_ctrls.num_reads::.cpu.inst             760                       # Number of read requests responded to by this memory
system.mem_ctrls.num_reads::.cpu.data         2975838                       # Number of read requests responded to by this memory
system.mem_ctrls.num_reads::total             2976598                       # Number of read requests responded to by this memory
system.mem_ctrls.num_writes::.writebacks      2910159                       # Number of write requests responded to by this memory
system.mem_ctrls.num_writes::total            2910159                       # Number of write requests responded to by this memory
system.mem_ctrls.bw_read::.cpu.inst             62016                       # Total read bandwidth from this memory (bytes/s)
system.mem_ctrls.bw_read::.cpu.data         242828927                       # Total read bandwidth from this memory (bytes/s)
system.mem_ctrls.bw_read::total             242890943                       # Total read bandwidth from this memory (bytes/s)
system.mem_ctrls.bw_inst_read::.cpu.inst        62016                       # Instruction read bandwidth from this memory (bytes/s)
system.mem_ctrls.bw_inst_read::total            62016                       # Instruction read bandwidth from this memory (bytes/s)
system.mem_ctrls.bw_write::.writebacks      237469508                       # Write bandwidth from this memory (bytes/s)
system.mem_ctrls.bw_write::total            237469508                       # Write bandwidth from this memory (bytes/s)
system.mem_ctrls.bw_total::.writebacks      237469508                       # Total bandwidth to/from this memory (bytes/s)
system.mem_ctrls.bw_total::.cpu.inst            62016                       # Total bandwidth to/from this memory (bytes/s)
system.mem_ctrls.bw_total::.cpu.data        242828927                       # Total bandwidth to/from this memory (bytes/s)
system.mem_ctrls.bw_total::total            480360451                       # Total bandwidth to/from this memory (bytes/s)
system.mem_ctrls.avgPriority_.writebacks::samples   1455095.00                       # Average QoS priority value for accepted requests
system.mem_ctrls.avgPriority_.cpu.inst::samples       760.00                       # Average QoS priority value for accepted requests
system.mem_ctrls.avgPriority_.cpu.data::samples   2975838.00                       # Average QoS priority value for accepted requests
system.mem_ctrls.priorityMinLatency      0.000000018750                       # per QoS priority minimum request to response latency (s)
system.mem_ctrls.priorityMaxLatency      0.001205150500                       # per QoS priority maximum request to response latency (s)
system.mem_ctrls.numReadWriteTurnArounds        90941                       # Number of turnarounds from READ to WRITE
system.mem_ctrls.numWriteReadTurnArounds        90941                       # Number of turnarounds from WRITE to READ
system.mem_ctrls.numStayReadState             8865579                       # Number of times bus staying in READ state
system.mem_ctrls.numStayWriteState            1374222                       # Number of times bus staying in WRITE state
system.mem_ctrls.readReqs                     2976598                       # Number of read requests accepted
system.mem_ctrls.writeReqs                    2910159                       # Number of write requests accepted
system.mem_ctrls.readBursts                   2976598                       # Number of DRAM read bursts, including those serviced by the write queue
system.mem_ctrls.writeBursts                  2910159                       # Number of DRAM write bursts, including those merged in the write queue
system.mem_ctrls.servicedByWrQ                      0                       # Number of DRAM read bursts serviced by the write queue
system.mem_ctrls.mergedWrBursts               1455064                       # Number of DRAM write bursts merged with an existing one
system.mem_ctrls.neitherReadNorWriteReqs            0                       # Number of requests that are neither read nor write
system.mem_ctrls.perBankRdBursts::0            186081                       # Per bank write bursts
system.mem_ctrls.perBankRdBursts::1            185915                       # Per bank write bursts
system.mem_ctrls.perBankRdBursts::2            185964                       # Per bank write bursts
system.mem_ctrls.perBankRdBursts::3            185999                       # Per bank write bursts
system.mem_ctrls.perBankRdBursts::4            186179                       # Per bank write bursts
system.mem_ctrls.perBankRdBursts::5            186139                       # Per bank write bursts
system.mem_ctrls.perBankRdBursts::6            186119                       # Per bank write bursts
system.mem_ctrls.perBankRdBursts::7            186147                       # Per bank write bursts
system.mem_ctrls.perBankRdBursts::8            186258                       # Per bank write bursts
system.mem_ctrls.perBankRdBursts::9            186131                       # Per bank write bursts
system.mem_ctrls.perBankRdBursts::10           186075                       # Per bank write bursts
system.mem_ctrls.perBankRdBursts::11           185894                       # Per bank write bursts
system.mem_ctrls.perBankRdBursts::12           185961                       # Per bank write bursts
system.mem_ctrls.perBankRdBursts::13           185889                       # Per bank write bursts
system.mem_ctrls.perBankRdBursts::14           185897                       # Per bank write bursts
system.mem_ctrls.perBankRdBursts::15           185950                       # Per bank write bursts
system.mem_ctrls.perBankWrBursts::0             90924                       # Per bank write bursts
system.mem_ctrls.perBankWrBursts::1             90903                       # Per bank write bursts
system.mem_ctrls.perBankWrBursts::2             90895                       # Per bank write bursts
system.mem_ctrls.perBankWrBursts::3             90950                       # Per bank write bursts
system.mem_ctrls.perBankWrBursts::4             91009                       # Per bank write bursts
system.mem_ctrls.perBankWrBursts::5             91008                       # Per bank write bursts
system.mem_ctrls.perBankWrBursts::6             91008                       # Per bank write bursts
system.mem_ctrls.perBankWrBursts::7             91008                       # Per bank write bursts
system.mem_ctrls.perBankWrBursts::8             91008                       # Per bank write bursts
system.mem_ctrls.perBankWrBursts::9             91008                       # Per bank write bursts
system.mem_ctrls.perBankWrBursts::10            90943                       # Per bank write bursts
system.mem_ctrls.perBankWrBursts::11            90880                       # Per bank write bursts
system.mem_ctrls.perBankWrBursts::12            90880                       # Per bank write bursts
system.mem_ctrls.perBankWrBursts::13            90880                       # Per bank write bursts
system.mem_ctrls.perBankWrBursts::14            90880                       # Per bank write bursts
system.mem_ctrls.perBankWrBursts::15            90884                       # Per bank write bursts
system.mem_ctrls.avgRdQLen                       1.00                       # Average read queue length when enqueuing
system.mem_ctrls.avgWrQLen                      25.16                       # Average write queue length when enqueuing
system.mem_ctrls.totQLat                  21247745750                       # Total ticks spent queuing
system.mem_ctrls.totBusLat                14882990000                       # Total ticks spent in databus transfers
system.mem_ctrls.totMemAccLat             77058958250                       # Total ticks spent from burst creation until serviced by the DRAM
system.mem_ctrls.avgQLat                      7138.27                       # Average queueing delay per DRAM burst
system.mem_ctrls.avgBusLat                    5000.00                       # Average bus latency per DRAM burst
system.mem_ctrls.avgMemAccLat                25888.27                       # Average memory access latency per DRAM burst
system.mem_ctrls.numRdRetry                         0                       # Number of times read queue was full causing retry
system.mem_ctrls.numWrRetry                         0                       # Number of times write queue was full causing retry
system.mem_ctrls.readRowHits                  2733111                       # Number of row buffer hits during reads
system.mem_ctrls.writeRowHits                 1352276                       # Number of row buffer hits during writes
system.mem_ctrls.readRowHitRate                 91.82                       # Row buffer hit rate for reads
system.mem_ctrls.writeRowHitRate                92.93                       # Row buffer hit rate for writes
system.mem_ctrls.readPktSize::0                     0                       # Read request sizes (log2)
system.mem_ctrls.readPktSize::1                     0                       # Read request sizes (log2)
system.mem_ctrls.readPktSize::2                     0                       # Read request sizes (log2)
system.mem_ctrls.readPktSize::3                     0                       # Read request sizes (log2)
system.mem_ctrls.readPktSize::4                     0                       # Read request sizes (log2)
system.mem_ctrls.readPktSize::5               2976598                       # Read request sizes (log2)
system.mem_ctrls.readPktSize::6                     0                       # Read request sizes (log2)
system.mem_ctrls.writePktSize::0                    0                       # Write request sizes (log2)
system.mem_ctrls.writePktSize::1                    0                       # Write request sizes (log2)
system.mem_ctrls.writePktSize::2                    0                       # Write request sizes (log2)
system.mem_ctrls.writePktSize::3                    0                       # Write request sizes (log2)
system.mem_ctrls.writePktSize::4                    0                       # Write request sizes (log2)
system.mem_ctrls.writePktSize::5              2910159                       # Write request sizes (log2)
system.mem_ctrls.writePktSize::6                    0                       # Write request sizes (log2)
system.mem_ctrls.rdQLenPdf::0                 2976449                       # What read queue length does an incoming req see
system.mem_ctrls.rdQLenPdf::1                     135                       # What read queue length does an incoming req see
system.mem_ctrls.rdQLenPdf::2                      12                       # What read queue length does an incoming req see
system.mem_ctrls.rdQLenPdf::3                       2                       # What read queue length does an incoming req see
system.mem_ctrls.rdQLenPdf::4                       0                       # What read queue length does an incoming req see
system.mem_ctrls.rdQLenPdf::5                       0                       # What read queue length does an incoming req see
system.mem_ctrls.rdQLenPdf::6                       0                       # What read queue length does an incoming req see
system.mem_ctrls.rdQLenPdf::7                       0                       # What read queue length does an incoming req see
system.mem_ctrls.rdQLenPdf::8                       0                       # What read queue length does an incoming req see
system.mem_ctrls.rdQLenPdf::9                       0                       # What read queue length does an incoming req see
system.mem_ctrls.rdQLenPdf::10                      0                       # What read queue length does an incoming req see
system.mem_ctrls.rdQLenPdf::11                      0                       # What read queue length does an incoming req see
system.mem_ctrls.rdQLenPdf::12                      0                       # What read queue length does an incoming req see
system.mem_ctrls.rdQLenPdf::13                      0                       # What read queue length does an incoming req see
system.mem_ctrls.rdQLenPdf::14                      0                       # What read queue length does an incoming req see
system.mem_ctrls.rdQLenPdf::15                      0                       # What read queue length does an incoming req see
system.mem_ctrls.rdQLenPdf::16                      0                       # What read queue length does an incoming req see
system.mem_ctrls.rdQLenPdf::17                      0                       # What read queue length does an incoming req see
system.mem_ctrls.rdQLenPdf::18                      0                       # What read queue length does an incoming req see
system.mem_ctrls.rdQLenPdf::19                      0                       # What read queue length does an incoming req see
system.mem_ctrls.rdQLenPdf::20                      0                       # What read queue length does an incoming req see
system.mem_ctrls.rdQLenPdf::21                      0                       # What read queue length does an incoming req see
system.mem_ctrls.rdQLenPdf::22                      0                       # What read queue length does an incoming req see
system.mem_ctrls.rdQLenPdf::23                      0                       # What read queue length does an incoming req see
system.mem_ctrls.rdQLenPdf::24                      0                       # What read queue length does an incoming req see
system.mem_ctrls.rdQLenPdf::25                      0                       # What read queue length does an incoming req see
system.mem_ctrls.rdQLenPdf::26                      0                       # What read queue length does an incoming req see
system.mem_ctrls.rdQLenPdf::27                      0                       # What read queue length does an incoming req see
system.mem_ctrls.rdQLenPdf::28                      0                       # What read queue length does an incoming req see
system.mem_ctrls.rdQLenPdf::29                      0                       # What read queue length does an incoming req see
system.mem_ctrls.rdQLenPdf::30                      0                       # What read queue length does an incoming req see
system.mem_ctrls.rdQLenPdf::31                      0                       # What read queue length does an incoming req see
system.mem_ctrls.wrQLenPdf::0                       1                       # What write queue length does an incoming req see
system.mem_ctrls.wrQLenPdf::1                       1                       # What write queue length does an incoming req see
system.mem_ctrls.wrQLenPdf::2                       1                       # What write queue length does an incoming req see
system.mem_ctrls.wrQLenPdf::3                       1                       # What write queue length does an incoming req see
system.mem_ctrls.wrQLenPdf::4                       1                       # What write queue length does an incoming req see
system.mem_ctrls.wrQLenPdf::5                       1                       # What write queue length does an incoming req see
system.mem_ctrls.wrQLenPdf::6                       1                       # What write queue length does an incoming req see
system.mem_ctrls.wrQLenPdf::7                       1                       # What write queue length does an incoming req see
system.mem_ctrls.wrQLenPdf::8                       1                       # What write queue length does an incoming req see
system.mem_ctrls.wrQLenPdf::9                       1                       # What write queue length does an incoming req see
system.mem_ctrls.wrQLenPdf::10                      1                       # What write queue length does an incoming req see
system.mem_ctrls.wrQLenPdf::11                      1                       # What write queue length does an incoming req see
system.mem_ctrls.wrQLenPdf::12                      1                       # What write queue length does an incoming req see
system.mem_ctrls.wrQLenPdf::13                      1                       # What write queue length does an incoming req see
system.mem_ctrls.wrQLenPdf::14                      1                       # What write queue length does an incoming req see
system.mem_ctrls.wrQLenPdf::15                      7                       # What write queue length does an incoming req see
system.mem_ctrls.wrQLenPdf::16                      7                       # What write queue length does an incoming req see
system.mem_ctrls.wrQLenPdf::17                  90942                       # What write queue length does an incoming req see
system.mem_ctrls.wrQLenPdf::18                  90942                       # What write queue length does an incoming req see
system.mem_ctrls.wrQLenPdf::19                  90942                       # What write queue length does an incoming req see
system.mem_ctrls.wrQLenPdf::20                  90942                       # What write queue length does an incoming req see
system.mem_ctrls.wrQLenPdf::21                  90942                       # What write queue length does an incoming req see
system.mem_ctrls.wrQLenPdf::22                  90942                       # What write queue length does an incoming req see
system.mem_ctrls.wrQLenPdf::23                  90942                       # What write queue length does an incoming req see
system.mem_ctrls.wrQLenPdf::24                  90942                       # What write queue length does an incoming req see
system.mem_ctrls.wrQLenPdf::25                  90942                       # What write queue length does an incoming req see
system.mem_ctrls.wrQLenPdf::26                  90942                       # What write queue length does an incoming req see
system.mem_ctrls.wrQLenPdf::27                  90941                       # What write queue length does an incoming req see
system.mem_ctrls.wrQLenPdf::28                  90941                       # What write queue length does an incoming req see
system.mem_ctrls.wrQLenPdf::29                  90941                       # What write queue length does an incoming req see
system.mem_ctrls.wrQLenPdf::30                  90941                       # What write queue length does an incoming req see
system.mem_ctrls.wrQLenPdf::31                  90941                       # What write queue length does an incoming req see
system.mem_ctrls.wrQLenPdf::32                  90941                       # What write queue length does an incoming req see
system.mem_ctrls.wrQLenPdf::33                      0                       # What write queue length does an incoming req see
system.mem_ctrls.wrQLenPdf::34                      0                       # What write queue length does an incoming req see
system.mem_ctrls.wrQLenPdf::35                      0                       # What write queue length does an incoming req see
system.mem_ctrls.wrQLenPdf::36                      0                       # What write queue length does an incoming req see
system.mem_ctrls.wrQLenPdf::37                      0                       # What write queue length does an incoming req see
system.mem_ctrls.wrQLenPdf::38                      0                       # What write queue length does an incoming req see
system.mem_ctrls.wrQLenPdf::39                      0                       # What write queue length does an incoming req see
system.mem_ctrls.wrQLenPdf::40                      0                       # What write queue length does an incoming req see
system.mem_ctrls.wrQLenPdf::41                      0                       # What write queue length does an incoming req see
system.mem_ctrls.wrQLenPdf::42                      0                       # What write queue length does an incoming req see
system.mem_ctrls.wrQLenPdf::43                      0                       # What write queue length does an incoming req see
system.mem_ctrls.wrQLenPdf::44                      0                       # What write queue length does an incoming req see
system.mem_ctrls.wrQLenPdf::45                      0                       # What write queue length does an incoming req see
system.mem_ctrls.wrQLenPdf::46                      0                       # What write queue length does an incoming req see
system.mem_ctrls.wrQLenPdf::47                      0                       # What write queue length does an incoming req see
system.mem_ctrls.wrQLenPdf::48                      0                       # What write queue length does an incoming req see
system.mem_ctrls.wrQLenPdf::49                      0                       # What write queue length does an incoming req see
system.mem_ctrls.wrQLenPdf::50                      0                       # What write queue length does an incoming req see
system.mem_ctrls.wrQLenPdf::51                      0                       # What write queue length does an incoming req see
system.mem_ctrls.wrQLenPdf::52                      0                       # What write queue length does an incoming req see
system.mem_ctrls.wrQLenPdf::53                      0                       # What write queue length does an incoming req see
system.mem_ctrls.wrQLenPdf::54                      0                       # What write queue length does an incoming req see
system.mem_ctrls.wrQLenPdf::55                      0                       # What write queue length does an incoming req see
system.mem_ctrls.wrQLenPdf::56                      0                       # What write queue length does an incoming req see
system.mem_ctrls.wrQLenPdf::57                      0                       # What write queue length does an incoming req see
system.mem_ctrls.wrQLenPdf::58                      0                       # What write queue length does an incoming req see
system.mem_ctrls.wrQLenPdf::59                      0                       # What write queue length does an incoming req see
system.mem_ctrls.wrQLenPdf::60                      0                       # What write queue length does an incoming req see
system.mem_ctrls.wrQLenPdf::61                      0                       # What write queue length does an incoming req see
system.mem_ctrls.wrQLenPdf::62                      0                       # What write queue length does an incoming req see
system.mem_ctrls.wrQLenPdf::63                      0                       # What write queue length does an incoming req see
system.mem_ctrls.bytesPerActivate::samples       346278                       # Bytes accessed per row activation
system.mem_ctrls.bytesPerActivate::mean    819.070181                       # Bytes accessed per row activation
system.mem_ctrls.bytesPerActivate::gmean   671.628627                       # Bytes accessed per row activation
system.mem_ctrls.bytesPerActivate::stdev   327.235088                       # Bytes accessed per row activation
system.mem_ctrls.bytesPerActivate::0-127        26532      7.66%      7.66% # Bytes accessed per row activation
system.mem_ctrls.bytesPerActivate::128-255        11580      3.34%     11.01% # Bytes accessed per row activation
system.mem_ctrls.bytesPerActivate::256-383        11895      3.44%     14.44% # Bytes accessed per row activation
system.mem_ctrls.bytesPerActivate::384-511        19094      5.51%     19.96% # Bytes accessed per row activation
system.mem_ctrls.bytesPerActivate::512-639         7646      2.21%     22.16% # Bytes accessed per row activation
system.mem_ctrls.bytesPerActivate::640-767        23318      6.73%     28.90% # Bytes accessed per row activation
system.mem_ctrls.bytesPerActivate::768-895         4673      1.35%     30.25% # Bytes accessed per row activation
system.mem_ctrls.bytesPerActivate::896-1023        29883      8.63%     38.88% # Bytes accessed per row activation
system.mem_ctrls.bytesPerActivate::1024-1151       211657     61.12%    100.00% # Bytes accessed per row activation
system.mem_ctrls.bytesPerActivate::total       346278                       # Bytes accessed per row activation
system.mem_ctrls.rdPerTurnAround::samples        90941                       # Reads before turning the bus around for writes
system.mem_ctrls.rdPerTurnAround::mean      32.730869                       # Reads before turning the bus around for writes
system.mem_ctrls.rdPerTurnAround::gmean     32.006239                       # Reads before turning the bus around for writes
system.mem_ctrls.rdPerTurnAround::stdev    205.006982                       # Reads before turning the bus around for writes
system.mem_ctrls.rdPerTurnAround::0-2047        90939    100.00%    100.00% # Reads before turning the bus around for writes
system.mem_ctrls.rdPerTurnAround::4096-6143            1      0.00%    100.00% # Reads before turning the bus around for writes
system.mem_ctrls.rdPerTurnAround::61440-63487            1      0.00%    100.00% # Reads before turning the bus around for writes
system.mem_ctrls.rdPerTurnAround::total         90941                       # Reads before turning the bus around for writes
system.mem_ctrls.wrPerTurnAround::samples        90941                       # Writes before turning the bus around for reads
system.mem_ctrls.wrPerTurnAround::mean      16.000132                       # Writes before turning the bus around for reads
system.mem_ctrls.wrPerTurnAround::gmean     16.000124                       # Writes before turning the bus around for reads
system.mem_ctrls.wrPerTurnAround::stdev      0.016245                       # Writes before turning the bus around for reads
system.mem_ctrls.wrPerTurnAround::16            90935     99.99%     99.99% # Writes before turning the bus around for reads
system.mem_ctrls.wrPerTurnAround::18                6      0.01%    100.00% # Writes before turning the bus around for reads
[...]
system.cpu.icache.tags.occ_percent::.cpu.inst     0.560478                       # Average percentage of cache occupancy
system.cpu.icache.tags.occ_percent::total     0.560478                       # Average percentage of cache occupancy
system.cpu.icache.tags.occ_task_id_blocks::1024          574                       # Occupied blocks per task id
system.cpu.icache.tags.age_task_id_blocks_1024::4          574                       # Occupied blocks per task id
system.cpu.icache.tags.occ_task_id_percent::1024     0.560547                       # Percentage of cache occupancy per task id
system.cpu.icache.tags.tag_accesses          19063492                       # Number of tag accesses
system.cpu.icache.tags.data_accesses         19063492                       # Number of data accesses
system.cpu.dtb.walker.pwrStateResidencyTicks::UNDEFINED 392155981000                       # Cumulative time (in ticks) in various power states
system.cpu.dtb.stage2_mmu.stage2_tlb.walker.pwrStateResidencyTicks::UNDEFINED 392155981000                       # Cumulative time (in ticks) in various power states
system.cpu.dcache.pwrStateResidencyTicks::UNDEFINED 392155981000                       # Cumulative time (in ticks) in various power states
system.cpu.dcache.demand_hits::.cpu.data     42855077                       # number of demand (read+write) hits
system.cpu.dcache.demand_hits::total         42855077                       # number of demand (read+write) hits
system.cpu.dcache.overall_hits::.cpu.data     42855108                       # number of overall hits
system.cpu.dcache.overall_hits::total        42855108                       # number of overall hits
system.cpu.dcache.demand_misses::.cpu.data      5951462                       # number of demand (read+write) misses
system.cpu.dcache.demand_misses::total        5951462                       # number of demand (read+write) misses
system.cpu.dcache.overall_misses::.cpu.data      5951488                       # number of overall misses
system.cpu.dcache.overall_misses::total       5951488                       # number of overall misses
system.cpu.dcache.demand_miss_latency::.cpu.data 573445809000                       # number of demand (read+write) miss cycles
system.cpu.dcache.demand_miss_latency::total 573445809000                       # number of demand (read+write) miss cycles
system.cpu.dcache.overall_miss_latency::.cpu.data 573445809000                       # number of overall miss cycles
system.cpu.dcache.overall_miss_latency::total 573445809000                       # number of overall miss cycles
system.cpu.dcache.demand_accesses::.cpu.data     48806539                       # number of demand (read+write) accesses
system.cpu.dcache.demand_accesses::total     48806539                       # number of demand (read+write) accesses
system.cpu.dcache.overall_accesses::.cpu.data     48806596                       # number of overall (read+write) accesses
system.cpu.dcache.overall_accesses::total     48806596                       # number of overall (read+write) accesses
system.cpu.dcache.demand_miss_rate::.cpu.data     0.121940                       # miss rate for demand accesses
system.cpu.dcache.demand_miss_rate::total     0.121940                       # miss rate for demand accesses
system.cpu.dcache.overall_miss_rate::.cpu.data     0.121940                       # miss rate for overall accesses
system.cpu.dcache.overall_miss_rate::total     0.121940                       # miss rate for overall accesses
system.cpu.dcache.demand_avg_miss_latency::.cpu.data 96353.771393                       # average overall miss latency
system.cpu.dcache.demand_avg_miss_latency::total 96353.771393                       # average overall miss latency
system.cpu.dcache.overall_avg_miss_latency::.cpu.data 96353.350456                       # average overall miss latency
system.cpu.dcache.overall_avg_miss_latency::total 96353.350456                       # average overall miss latency
system.cpu.dcache.blocked_cycles::no_mshrs            0                       # number of cycles access was blocked
system.cpu.dcache.blocked_cycles::no_targets            0                       # number of cycles access was blocked
system.cpu.dcache.blocked::no_mshrs                 0                       # number of cycles access was blocked
system.cpu.dcache.blocked::no_targets               0                       # number of cycles access was blocked
system.cpu.dcache.avg_blocked_cycles::no_mshrs          nan                       # average number of cycles each access was blocked
system.cpu.dcache.avg_blocked_cycles::no_targets          nan                       # average number of cycles each access was blocked
system.cpu.dcache.writebacks::.writebacks      2973649                       # number of writebacks
system.cpu.dcache.writebacks::total           2973649                       # number of writebacks
system.cpu.dcache.demand_mshr_hits::.cpu.data      2975638                       # number of demand (read+write) MSHR hits
system.cpu.dcache.demand_mshr_hits::total      2975638                       # number of demand (read+write) MSHR hits
system.cpu.dcache.overall_mshr_hits::.cpu.data      2975638                       # number of overall MSHR hits
system.cpu.dcache.overall_mshr_hits::total      2975638                       # number of overall MSHR hits
system.cpu.dcache.demand_mshr_misses::.cpu.data      2975824                       # number of demand (read+write) MSHR misses
system.cpu.dcache.demand_mshr_misses::total      2975824                       # number of demand (read+write) MSHR misses
system.cpu.dcache.overall_mshr_misses::.cpu.data      2975850                       # number of overall MSHR misses
system.cpu.dcache.overall_mshr_misses::total      2975850                       # number of overall MSHR misses
system.cpu.dcache.demand_mshr_miss_latency::.cpu.data 298039419000                       # number of demand (read+write) MSHR miss cycles
system.cpu.dcache.demand_mshr_miss_latency::total 298039419000                       # number of demand (read+write) MSHR miss cycles
system.cpu.dcache.overall_mshr_miss_latency::.cpu.data 298042652000                       # number of overall MSHR miss cycles
system.cpu.dcache.overall_mshr_miss_latency::total 298042652000                       # number of overall MSHR miss cycles
system.cpu.dcache.demand_mshr_miss_rate::.cpu.data     0.060972                       # mshr miss rate for demand accesses
system.cpu.dcache.demand_mshr_miss_rate::total     0.060972                       # mshr miss rate for demand accesses
system.cpu.dcache.overall_mshr_miss_rate::.cpu.data     0.060972                       # mshr miss rate for overall accesses
system.cpu.dcache.overall_mshr_miss_rate::total     0.060972                       # mshr miss rate for overall accesses
system.cpu.dcache.demand_avg_mshr_miss_latency::.cpu.data 100153.577295                       # average overall mshr miss latency
system.cpu.dcache.demand_avg_mshr_miss_latency::total 100153.577295                       # average overall mshr miss latency
system.cpu.dcache.overall_avg_mshr_miss_latency::.cpu.data 100153.788665                       # average overall mshr miss latency
system.cpu.dcache.overall_avg_mshr_miss_latency::total 100153.788665                       # average overall mshr miss latency
system.cpu.dcache.replacements                2973803                       # number of replacements
system.cpu.dcache.ReadReq_hits::.cpu.data     35710806                       # number of ReadReq hits
system.cpu.dcache.ReadReq_hits::total        35710806                       # number of ReadReq hits
system.cpu.dcache.ReadReq_misses::.cpu.data          161                       # number of ReadReq misses
system.cpu.dcache.ReadReq_misses::total           161                       # number of ReadReq misses
system.cpu.dcache.ReadReq_miss_latency::.cpu.data     16881000                       # number of ReadReq miss cycles
system.cpu.dcache.ReadReq_miss_latency::total     16881000                       # number of ReadReq miss cycles
system.cpu.dcache.ReadReq_accesses::.cpu.data     35710967                       # number of ReadReq accesses(hits+misses)
system.cpu.dcache.ReadReq_accesses::total     35710967                       # number of ReadReq accesses(hits+misses)
system.cpu.dcache.ReadReq_miss_rate::.cpu.data     0.000005                       # miss rate for ReadReq accesses
system.cpu.dcache.ReadReq_miss_rate::total     0.000005                       # miss rate for ReadReq accesses
system.cpu.dcache.ReadReq_avg_miss_latency::.cpu.data 104850.931677                       # average ReadReq miss latency
system.cpu.dcache.ReadReq_avg_miss_latency::total 104850.931677                       # average ReadReq miss latency
system.cpu.dcache.ReadReq_mshr_hits::.cpu.data            9                       # number of ReadReq MSHR hits
system.cpu.dcache.ReadReq_mshr_hits::total            9                       # number of ReadReq MSHR hits
system.cpu.dcache.ReadReq_mshr_misses::.cpu.data          152                       # number of ReadReq MSHR misses
system.cpu.dcache.ReadReq_mshr_misses::total          152                       # number of ReadReq MSHR misses
system.cpu.dcache.ReadReq_mshr_miss_latency::.cpu.data     15555000                       # number of ReadReq MSHR miss cycles
system.cpu.dcache.ReadReq_mshr_miss_latency::total     15555000                       # number of ReadReq MSHR miss cycles
system.cpu.dcache.ReadReq_mshr_miss_rate::.cpu.data     0.000004                       # mshr miss rate for ReadReq accesses
system.cpu.dcache.ReadReq_mshr_miss_rate::total     0.000004                       # mshr miss rate for ReadReq accesses
system.cpu.dcache.ReadReq_avg_mshr_miss_latency::.cpu.data 102335.526316                       # average ReadReq mshr miss latency
system.cpu.dcache.ReadReq_avg_mshr_miss_latency::total 102335.526316                       # average ReadReq mshr miss latency
system.cpu.dcache.WriteReq_hits::.cpu.data      7144271                       # number of WriteReq hits
system.cpu.dcache.WriteReq_hits::total        7144271                       # number of WriteReq hits
system.cpu.dcache.WriteReq_misses::.cpu.data      5951301                       # number of WriteReq misses
system.cpu.dcache.WriteReq_misses::total      5951301                       # number of WriteReq misses
system.cpu.dcache.WriteReq_miss_latency::.cpu.data 573428928000                       # number of WriteReq miss cycles
system.cpu.dcache.WriteReq_miss_latency::total 573428928000                       # number of WriteReq miss cycles
system.cpu.dcache.WriteReq_accesses::.cpu.data     13095572                       # number of WriteReq accesses(hits+misses)
system.cpu.dcache.WriteReq_accesses::total     13095572                       # number of WriteReq accesses(hits+misses)
system.cpu.dcache.WriteReq_miss_rate::.cpu.data     0.454451                       # miss rate for WriteReq accesses
system.cpu.dcache.WriteReq_miss_rate::total     0.454451                       # miss rate for WriteReq accesses
system.cpu.dcache.WriteReq_avg_miss_latency::.cpu.data 96353.541520                       # average WriteReq miss latency
system.cpu.dcache.WriteReq_avg_miss_latency::total 96353.541520                       # average WriteReq miss latency
system.cpu.dcache.WriteReq_mshr_hits::.cpu.data      2975629                       # number of WriteReq MSHR hits
system.cpu.dcache.WriteReq_mshr_hits::total      2975629                       # number of WriteReq MSHR hits
system.cpu.dcache.WriteReq_mshr_misses::.cpu.data      2975672                       # number of WriteReq MSHR misses
system.cpu.dcache.WriteReq_mshr_misses::total      2975672                       # number of WriteReq MSHR misses
system.cpu.dcache.WriteReq_mshr_miss_latency::.cpu.data 298023864000                       # number of WriteReq MSHR miss cycles
system.cpu.dcache.WriteReq_mshr_miss_latency::total 298023864000                       # number of WriteReq MSHR miss cycles
system.cpu.dcache.WriteReq_mshr_miss_rate::.cpu.data     0.227227                       # mshr miss rate for WriteReq accesses
system.cpu.dcache.WriteReq_mshr_miss_rate::total     0.227227                       # mshr miss rate for WriteReq accesses
system.cpu.dcache.WriteReq_avg_mshr_miss_latency::.cpu.data 100153.465839                       # average WriteReq mshr miss latency
system.cpu.dcache.WriteReq_avg_mshr_miss_latency::total 100153.465839                       # average WriteReq mshr miss latency
system.cpu.dcache.SoftPFReq_hits::.cpu.data           31                       # number of SoftPFReq hits
system.cpu.dcache.SoftPFReq_hits::total            31                       # number of SoftPFReq hits
system.cpu.dcache.SoftPFReq_misses::.cpu.data           26                       # number of SoftPFReq misses
system.cpu.dcache.SoftPFReq_misses::total           26                       # number of SoftPFReq misses
system.cpu.dcache.SoftPFReq_accesses::.cpu.data           57                       # number of SoftPFReq accesses(hits+misses)
system.cpu.dcache.SoftPFReq_accesses::total           57                       # number of SoftPFReq accesses(hits+misses)
system.cpu.dcache.SoftPFReq_miss_rate::.cpu.data     0.456140                       # miss rate for SoftPFReq accesses
system.cpu.dcache.SoftPFReq_miss_rate::total     0.456140                       # miss rate for SoftPFReq accesses
system.cpu.dcache.SoftPFReq_mshr_misses::.cpu.data           26                       # number of SoftPFReq MSHR misses
system.cpu.dcache.SoftPFReq_mshr_misses::total           26                       # number of SoftPFReq MSHR misses
system.cpu.dcache.SoftPFReq_mshr_miss_latency::.cpu.data      3233000                       # number of SoftPFReq MSHR miss cycles
system.cpu.dcache.SoftPFReq_mshr_miss_latency::total      3233000                       # number of SoftPFReq MSHR miss cycles
system.cpu.dcache.SoftPFReq_mshr_miss_rate::.cpu.data     0.456140                       # mshr miss rate for SoftPFReq accesses
system.cpu.dcache.SoftPFReq_mshr_miss_rate::total     0.456140                       # mshr miss rate for SoftPFReq accesses
system.cpu.dcache.SoftPFReq_avg_mshr_miss_latency::.cpu.data 124346.153846                       # average SoftPFReq mshr miss latency
system.cpu.dcache.SoftPFReq_avg_mshr_miss_latency::total 124346.153846                       # average SoftPFReq mshr miss latency
system.cpu.dcache.LoadLockedReq_hits::.cpu.data           13                       # number of LoadLockedReq hits
system.cpu.dcache.LoadLockedReq_hits::total           13                       # number of LoadLockedReq hits
system.cpu.dcache.LoadLockedReq_misses::.cpu.data            1                       # number of LoadLockedReq misses
system.cpu.dcache.LoadLockedReq_misses::total            1                       # number of LoadLockedReq misses
system.cpu.dcache.LoadLockedReq_miss_latency::.cpu.data        95000                       # number of LoadLockedReq miss cycles
system.cpu.dcache.LoadLockedReq_miss_latency::total        95000                       # number of LoadLockedReq miss cycles
system.cpu.dcache.LoadLockedReq_accesses::.cpu.data           14                       # number of LoadLockedReq accesses(hits+misses)
system.cpu.dcache.LoadLockedReq_accesses::total           14                       # number of LoadLockedReq accesses(hits+misses)
system.cpu.dcache.LoadLockedReq_miss_rate::.cpu.data     0.071429                       # miss rate for LoadLockedReq accesses
system.cpu.dcache.LoadLockedReq_miss_rate::total     0.071429                       # miss rate for LoadLockedReq accesses
system.cpu.dcache.LoadLockedReq_avg_miss_latency::.cpu.data        95000                       # average LoadLockedReq miss latency
system.cpu.dcache.LoadLockedReq_avg_miss_latency::total        95000                       # average LoadLockedReq miss latency
system.cpu.dcache.LoadLockedReq_mshr_misses::.cpu.data            1                       # number of LoadLockedReq MSHR misses
system.cpu.dcache.LoadLockedReq_mshr_misses::total            1                       # number of LoadLockedReq MSHR misses
system.cpu.dcache.LoadLockedReq_mshr_miss_latency::.cpu.data        93000                       # number of LoadLockedReq MSHR miss cycles
system.cpu.dcache.LoadLockedReq_mshr_miss_latency::total        93000                       # number of LoadLockedReq MSHR miss cycles
system.cpu.dcache.LoadLockedReq_mshr_miss_rate::.cpu.data     0.071429                       # mshr miss rate for LoadLockedReq accesses
system.cpu.dcache.LoadLockedReq_mshr_miss_rate::total     0.071429                       # mshr miss rate for LoadLockedReq accesses
system.cpu.dcache.LoadLockedReq_avg_mshr_miss_latency::.cpu.data        93000                       # average LoadLockedReq mshr miss latency
system.cpu.dcache.LoadLockedReq_avg_mshr_miss_latency::total        93000                       # average LoadLockedReq mshr miss latency
system.cpu.dcache.StoreCondReq_hits::.cpu.data           14                       # number of StoreCondReq hits
system.cpu.dcache.StoreCondReq_hits::total           14                       # number of StoreCondReq hits
system.cpu.dcache.StoreCondReq_accesses::.cpu.data           14                       # number of StoreCondReq accesses(hits+misses)
system.cpu.dcache.StoreCondReq_accesses::total           14                       # number of StoreCondReq accesses(hits+misses)
system.cpu.dcache.tags.pwrStateResidencyTicks::UNDEFINED 392155981000                       # Cumulative time (in ticks) in various power states
system.cpu.dcache.tags.tagsinuse          2046.884145                       # Cycle average of tags in use
system.cpu.dcache.tags.total_refs            45830986                       # Total number of references to valid blocks.
system.cpu.dcache.tags.sampled_refs           2975851                       # Sample count of references to valid blocks.
system.cpu.dcache.tags.avg_refs             15.400968                       # Average number of references to valid blocks.
system.cpu.dcache.tags.warmup_cycle            223000                       # Cycle when the warmup percentage was hit.
system.cpu.dcache.tags.occ_blocks::.cpu.data  2046.884145                       # Average occupied blocks per requestor
system.cpu.dcache.tags.occ_percent::.cpu.data     0.999455                       # Average percentage of cache occupancy
system.cpu.dcache.tags.occ_percent::total     0.999455                       # Average percentage of cache occupancy
system.cpu.dcache.tags.occ_task_id_blocks::1024         2048                       # Occupied blocks per task id
system.cpu.dcache.tags.age_task_id_blocks_1024::0           75                       # Occupied blocks per task id
system.cpu.dcache.tags.age_task_id_blocks_1024::1          684                       # Occupied blocks per task id
system.cpu.dcache.tags.age_task_id_blocks_1024::2         1287                       # Occupied blocks per task id
system.cpu.dcache.tags.age_task_id_blocks_1024::4            2                       # Occupied blocks per task id
system.cpu.dcache.tags.occ_task_id_percent::1024            1                       # Percentage of cache occupancy per task id
system.cpu.dcache.tags.tag_accesses         100589099                       # Number of tag accesses
system.cpu.dcache.tags.data_accesses        100589099                       # Number of data accesses
system.cpu.itb.walker.pwrStateResidencyTicks::UNDEFINED 392155981000                       # Cumulative time (in ticks) in various power states
system.cpu.itb.stage2_mmu.stage2_tlb.walker.pwrStateResidencyTicks::UNDEFINED 392155981000                       # Cumulative time (in ticks) in various power states

---------- End Simulation Statistics   ----------
